version 2
run General-1-20191211-23:49:40-6373
attr configname General
attr datetime 20191211-23:49:40
attr experiment General
attr inifile omnetpp.ini
attr iterationvars ""
attr iterationvarsf ""
attr measurement ""
attr network Carrefour
attr processid 6373
attr repetition 1
attr replication #1
attr resultdir results
attr runnumber 1
attr seedset 1
param **.tillsNumber 7
param **.delta 0s
param **.policy 1
param **.capacity 0.3
param **.meanInterArrivalTime 8s
param **.meanItemsInACart 12
param **.interArrivalDistribution 0
param **.itemsInCartDistribution 0

vector 0 Carrefour.decider stats_numCustomers:vector ETV
attr "" ""
attr source numCustomers
vector 1 Carrefour.decider stats_numCustomersQueue:vector ETV
attr "" ""
attr source numCustomersQueue
0	744	1208.172948389373	3
0	746	1208.993281689709	4
0	749	1210.152688253495	3
0	751	1211.765973909401	2
0	753	1213.598072408872	1
0	755	1219.670401396647	2
0	758	1219.714880183709	3
0	761	1222.728059432943	2
0	763	1223.528986833765	3
0	766	1233.959287822623	4
0	769	1234.064110271165	5
0	772	1236.520705799422	4
0	774	1237.581502706568	5
0	777	1241.81051565041	4
0	779	1242.833863874552	3
0	781	1244.169932021398	2
0	783	1250.353871408648	3
0	786	1252.269409075473	4
0	789	1254.780399767434	5
0	792	1256.48846748519	4
0	794	1258.376079397501	5
0	797	1263.914109199322	4
0	799	1265.36738884238	5
0	802	1269.883264900314	4
0	804	1282.216978051608	5
0	807	1282.424042369159	6
0	810	1286.036021230345	7
0	813	1287.365772694121	6
0	815	1294.357097901036	5
0	817	1294.718479314589	6
0	820	1298.315498923484	5
0	822	1300.315132688495	6
0	825	1301.97120461416	5
0	827	1304.237089377028	6
0	830	1314.449706072763	5
0	832	1315.9076058157	6
0	835	1321.163042022807	5
0	837	1321.40610045367	6
0	840	1323.673828147268	5
0	842	1337.399620728582	4
0	844	1341.077726327702	5
0	847	1345.365586135774	6
0	850	1348.056728887495	5
0	852	1359.372123694583	6
0	855	1361.686958928259	5
0	857	1362.829125330954	6
0	860	1363.320367101713	5
0	862	1367.073902936667	6
0	865	1372.227643563696	5
0	867	1373.479368398147	6
0	870	1379.328750600795	5
0	872	1381.451626955547	6
0	875	1392.700411767395	5
0	877	1395.595996299147	4
0	879	1408.500093754988	3
0	881	1410.320555948566	4
0	884	1413.667884094724	5
0	887	1414.625148374565	6
0	890	1418.471309027863	7
0	893	1421.477687944274	8
0	895	1421.861763398053	7
0	898	1435.783948673279	6
0	900	1447.736383488949	7
0	903	1448.077954379817	8
0	905	1448.50364123163	7
0	908	1456.408574561188	8
0	910	1467.136076336201	9
0	912	1470.303065211959	8
0	915	1473.911904343785	7
0	918	1478.863795789256	6
0	920	1485.993432403717	5
0	922	1486.769914668937	4
0	924	1491.138619521412	3
0	926	1492.467419649648	4
0	929	1501.039577881019	5
0	932	1507.044275735674	4
0	934	1513.002042371217	3
0	936	1514.054371963086	4
0	939	1515.987233190861	5
0	942	1518.07177425259	6
0	945	1522.384936338797	7
0	948	1539.294022749122	8
0	950	1544.135607109963	7
0	953	1547.088256604011	6
0	955	1547.553067781721	7
0	958	1554.73471115541	8
0	960	1557.245118277825	7
0	963	1560.305767864954	6
0	965	1560.882978244625	5
0	967	1563.400119291839	6
0	970	1575.469622842272	5
0	972	1575.74079509393	6
0	975	1577.236031905238	7
0	978	1583.31279722442	8
0	980	1584.005733812106	7
0	983	1584.303951646882	6
0	985	1592.750912903305	5
0	987	1600.385819441745	6
0	990	1606.713288261084	5
0	992	1607.934756496323	4
0	994	1608.767997099733	3
0	996	1616.196589208416	2
0	998	1627.994949346828	3
0	1001	1636.526257383854	2
0	1003	1640.035866505794	3
0	1006	1646.88032084897	4
0	1009	1648.030860838167	5
0	1012	1648.851922832618	4
0	1014	1650.682711039224	3
0	1016	1653.213856399983	4
0	1019	1657.100744698554	3
0	1021	1669.46923037075	4
0	1024	1670.801395354102	3
0	1026	1673.842764825569	4
0	1029	1684.894107096976	5
0	1032	1692.204058369949	6
0	1035	1698.617206808483	5
0	1037	1705.023186975162	6
0	1040	1705.924707991167	7
0	1043	1712.195328845118	8
0	1045	1713.365743485956	7
0	1048	1714.686771296393	6
0	1050	1715.87395002188	7
0	1053	1717.87023953561	8
0	1055	1719.637185625734	7
0	1058	1719.815034311572	8
0	1060	1737.299637488426	7
0	1063	1738.714208209897	6
0	1065	1739.868193613264	7
0	1068	1743.01759431501	6
0	1070	1747.43541381248	5
0	1072	1747.566004041238	4
0	1074	1753.037471077796	5
0	1077	1760.211034378144	6
0	1080	1764.145144499664	5
0	1082	1768.348746123205	4
0	1084	1773.015675986215	5
0	1087	1774.38709864994	4
0	1089	1776.415770181041	5
0	1092	1782.884943308424	6
0	1095	1785.334737630142	7
0	1098	1788.938901454233	6
0	1100	1796.594167963544	5
0	1102	1803.376208677173	6
0	1105	1809.435797433379	5
0	1107	1817.005558349474	4
0	1109	1822.995613773465	5
0	1112	1827.675496626283	4
0	1114	1834.990463268435	3
0	1116	1844.171996001222	4
0	1119	1848.526165410092	5
0	1122	1850.982775663619	4
0	1124	1854.007289630644	3
0	1126	1858.245691983691	2
0	1128	1872.513391183373	1
0	1130	1878.927654156928	2
0	1133	1882.493662380075	1
0	1135	1885.143215775009	2
0	1138	1886.729989704076	1
0	1140	1901.91074461616	0
0	1142	1905.124109210167	1
0	1145	1908.18309790065	0
0	1147	1912.625085586699	1
0	1150	1912.951755168802	2
0	1153	1926.9528495458	3
0	1156	1932.094256416183	2
0	1158	1937.511585554021	3
0	1161	1945.327626024922	4
0	1164	1946.915451927424	3
0	1166	1950.253106727056	2
0	1168	1963.463352603781	3
0	1171	1965.018947765218	4
0	1174	1969.651560619682	3
0	1176	1978.397265063071	2
0	1178	1979.571855685762	3
0	1181	1986.729212109407	4
0	1184	1992.880004130702	5
0	1187	1994.894234545528	4
0	1189	1998.255257734423	5
0	1192	1999.205347884395	4
0	1194	2000.957939764299	3
0	1196	2001.356085388524	4
0	1199	2002.122609746753	3
0	1201	2007.707038105643	4
0	1204	2010.148739175329	3
0	1206	2010.753262170573	2
0	1208	2011.757113188577	3
0	1211	2020.661053854499	2
0	1213	2021.376122428781	3
0	1216	2023.975752279595	4
0	1219	2026.232652222697	5
0	1222	2032.976393893495	4
0	1224	2048.254695441758	5
0	1227	2049.907220698507	6
0	1230	2054.89234889184	7
0	1233	2055.82986290052	8
0	1235	2064.235491385854	7
0	1238	2066.097159557086	6
0	1240	2067.743585986085	5
0	1242	2070.563268889209	4
0	1244	2071.129841682913	5
0	1247	2073.692136792567	6
0	1250	2074.333238813721	5
0	1252	2075.605988669625	6
0	1255	2075.688412147101	7
0	1258	2075.689400881617	8
0	1260	2083.629587282628	9
0	1262	2084.409575001464	10
0	1264	2087.207990292665	11
0	1266	2088.748094134637	12
0	1268	2090.407107609512	13
0	1270	2093.273851167745	12
0	1273	2096.193636035169	13
0	1275	2096.994745418098	14
0	1277	2113.377608413018	13
0	1280	2113.956210477128	14
0	1282	2116.147903314559	13
0	1285	2116.62608341435	14
0	1287	2117.44095777148	13
0	1290	2119.056430700361	12
0	1293	2121.435030708864	11
0	1296	2122.039369167867	10
0	1299	2125.499655429856	9
0	1302	2126.989810003034	8
0	1305	2128.915282761423	9
0	1307	2130.85108464744	10
0	1309	2136.888222085233	11
0	1311	2139.57876187618	12
0	1313	2142.138617627147	13
0	1315	2144.517389896596	12
0	1318	2145.063681845841	11
0	1321	2147.238953043749	12
0	1323	2147.452860673647	13
0	1325	2153.83198179741	14
0	1327	2154.373769650175	13
0	1330	2170.135837486147	14
0	1332	2176.191047799852	13
0	1335	2185.056319379954	14
0	1337	2187.633821440588	15
0	1339	2200.9593631978	14
0	1342	2204.159447718605	13
0	1345	2211.614247281039	12
0	1348	2223.363842394671	13
0	1350	2223.940008913374	12
0	1353	2224.619041369057	13
0	1355	2225.019861494409	14
0	1357	2230.652097082735	15
0	1359	2232.765053316163	16
0	1361	2236.002869617393	15
0	1364	2236.029938121833	16
0	1366	2242.866194703128	15
0	1369	2244.277075906124	16
0	1371	2245.688066300068	17
0	1373	2247.096872907577	18
0	1375	2248.86489147143	17
0	1378	2249.077284765372	18
0	1380	2255.45310002906	17
0	1383	2265.40803447765	18
0	1385	2274.310316713849	17
0	1388	2279.896436507196	18
0	1390	2281.857529825183	19
0	1392	2289.337302257049	18
0	1395	2289.96949374941	17
0	1398	2292.051204960507	18
0	1400	2302.881978591518	19
0	1402	2303.304866900694	20
0	1404	2305.99966808448	19
0	1407	2306.590470609976	18
0	1410	2308.674039478214	17
0	1413	2311.77278374888	18
0	1415	2319.582645520329	19
0	1417	2323.47257568373	18
0	1420	2332.41369313859	19
0	1422	2335.111689066727	20
0	1424	2335.36565851459	21
0	1426	2345.822757735875	20
0	1429	2348.769508973117	21
0	1431	2350.856002626136	22
0	1433	2354.318378244316	21
0	1436	2357.171024472563	22
0	1438	2359.571552180024	21
0	1441	2366.927168535209	22
0	1443	2367.07468048848	23
0	1445	2367.807766080564	24
0	1447	2367.937697650965	25
0	1449	2368.186234461735	26
0	1451	2378.670393159226	25
0	1454	2388.513267659922	24
0	1457	2389.633453981285	23
0	1460	2390.057577025609	24
0	1462	2393.037082924326	23
0	1465	2393.592140454641	24
0	1467	2395.393877371542	23
0	1470	2397.554195768457	24
0	1472	2401.371868302305	23
0	1475	2404.682728027684	24
0	1477	2410.102372873873	23
0	1480	2413.621368921616	22
0	1483	2422.25687320844	21
0	1486	2424.004774300382	22
0	1488	2424.433860265027	23
0	1490	2438.12852181823	24
0	1492	2438.671872293556	25
0	1494	2439.429614462384	26
0	1496	2439.785420312036	27
0	1498	2440.530028347525	26
0	1501	2443.031356246801	25
0	1504	2443.333751164349	26
0	1506	2447.018925090383	25
0	1509	2447.355959497381	26
0	1511	2447.509300773554	27
0	1513	2453.952280354941	26
0	1516	2455.649332264895	25
0	1519	2456.340560225317	26
0	1521	2458.325771873736	25
0	1524	2461.123644926757	26
0	1526	2461.657470735389	25
0	1529	2462.889088765601	26
0	1531	2463.135800131692	27
0	1533	2465.574996111887	26
0	1536	2474.780516897593	25
0	1539	2475.03161516208	24
0	1542	2476.722030772104	23
0	1545	2479.852798953065	24
0	1547	2482.374364969483	25
0	1549	2486.904918015652	26
0	1551	2486.925605336407	27
0	1553	2489.253554018824	26
0	1556	2489.871938403489	25
0	1559	2494.658732924352	26
0	1561	2496.540839181637	25
0	1564	2496.549093683567	24
0	1567	2498.904833038952	23
0	1570	2499.208432033296	24
0	1572	2501.953164353628	25
0	1574	2507.519140352782	24
0	1577	2509.031000914594	25
0	1579	2516.672387998344	26
0	1581	2523.216287610064	25
0	1584	2524.000808635829	24
0	1587	2547.5655058261	23
0	1590	2555.283162474771	24
0	1592	2560.613881767586	23
0	1595	2562.896695427573	22
0	1598	2568.654282200211	21
0	1601	2571.690054485175	20
0	1604	2577.827778415064	19
0	1607	2578.647391515338	18
0	1610	2578.949723023396	17
0	1613	2579.8571543845	18
0	1615	2581.40125309614	17
0	1618	2584.431968707577	18
0	1620	2586.628756160761	17
0	1623	2588.83528007405	16
0	1626	2589.185839822631	17
0	1628	2592.786536608736	18
0	1630	2593.313758134123	17
0	1633	2594.642495827746	18
0	1635	2595.81126572805	17
0	1638	2609.303200026605	16
0	1641	2611.159066816096	17
0	1643	2615.591260552792	18
0	1645	2620.900802827383	19
0	1647	2625.604965748128	20
0	1649	2635.652801276813	19
0	1652	2636.501278026089	20
0	1654	2641.314317805246	19
0	1657	2642.169273148842	20
0	1659	2647.1376986691	19
0	1662	2649.328261849183	18
0	1665	2653.394549890834	19
0	1667	2654.848064097697	18
0	1670	2658.032956928972	17
0	1673	2659.36243274437	18
0	1675	2662.49118216324	19
0	1677	2662.838027031427	20
0	1679	2666.489687263115	19
0	1682	2667.524061768848	18
0	1685	2671.390295141212	17
0	1688	2673.472845820578	18
0	1690	2674.909870596448	19
0	1692	2676.552198838353	20
0	1694	2681.338199957069	21
0	1696	2682.471554212883	22
0	1698	2685.668069682447	21
0	1701	2692.318776325921	22
0	1703	2692.398951993468	23
0	1705	2695.399341987343	22
0	1708	2702.696936190816	21
0	1711	2704.42473891962	22
0	1713	2708.159732670453	23
0	1715	2713.443557140751	22
0	1718	2720.168096788352	23
0	1720	2720.254974197672	24
0	1722	2720.986639810393	23
0	1725	2721.083823479633	22
0	1728	2725.844735606159	23
0	1730	2740.318095113034	22
0	1733	2740.940086638115	23
0	1735	2755.431294764493	22
0	1738	2766.065706631311	23
0	1740	2768.294605660754	24
0	1742	2771.520830198168	25
0	1744	2771.939043563324	24
0	1747	2773.991745213584	23
0	1750	2776.911962991137	22
0	1753	2777.832540710027	21
0	1756	2780.636985846658	22
0	1758	2784.522305572757	21
0	1761	2785.040036603166	20
0	1764	2785.890862294263	21
0	1766	2792.332755720817	20
0	1769	2794.935147816163	21
0	1771	2796.350629587692	20
0	1774	2796.42168279549	19
0	1777	2799.453954941824	18
0	1780	2801.282367707938	17
0	1783	2805.973639137338	18
0	1785	2807.894702174385	17
0	1788	2815.535355784083	16
0	1791	2823.333990744493	17
0	1793	2826.249218364238	16
0	1796	2827.076106323424	15
0	1799	2831.888282327902	14
0	1802	2836.355017266592	13
0	1805	2837.574162980455	12
0	1808	2838.940380341605	13
0	1810	2840.274161656306	14
0	1812	2844.555928624805	15
0	1814	2847.213556295459	14
0	1817	2857.351555231362	13
0	1820	2860.695730476563	12
0	1823	2862.602985095508	11
0	1826	2868.00959823845	12
0	1828	2868.960329514555	11
0	1831	2875.195830029696	10
0	1834	2877.504295677046	9
0	1837	2883.11670499004	10
0	1839	2885.898921984999	11
0	1841	2890.603037064215	12
0	1843	2901.275705301091	13
0	1845	2902.830038579388	12
0	1848	2911.338832482438	13
0	1850	2916.501905722116	14
0	1852	2916.569779759148	15
0	1854	2918.011095406729	16
0	1856	2918.21529074747	17
0	1858	2923.941540926501	16
0	1861	2925.731503591853	15
0	1864	2926.136067716009	14
0	1867	2927.998660307378	13
0	1870	2928.892403644454	12
0	1873	2931.182382308457	11
0	1876	2931.726135800378	10
0	1879	2932.271991921044	11
0	1881	2934.380741546336	10
0	1884	2941.242885231829	9
0	1887	2952.029346551381	8
0	1890	2954.839570393983	9
0	1892	2955.778579332008	8
0	1895	2961.046546950442	9
0	1897	2961.90845768366	10
0	1899	2965.406239434051	11
0	1901	2970.787978311724	10
0	1904	2974.083152121605	11
0	1906	2984.870270556706	10
0	1909	2986.032433050846	9
0	1912	2987.62874839646	8
0	1915	2988.844316823249	9
0	1917	2991.508639848027	10
0	1919	2991.666821158547	9
0	1922	2991.767212960154	10
0	1924	2993.560789292406	11
0	1926	2994.121896704325	12
0	1928	2994.65793245353	11
0	1931	2997.385318925866	10
0	1934	2998.05445020773	11
0	1936	3002.11134421084	10
0	1939	3005.969239729911	11
0	1941	3011.954167194726	10
0	1944	3013.098993673742	9
0	1947	3015.770362402375	8
0	1950	3016.175868102007	7
0	1953	3020.717258905857	6
0	1955	3022.604511184928	5
0	1957	3024.129794569091	4
0	1959	3026.788130135213	5
0	1962	3034.849755490809	6
0	1965	3037.421888541596	5
0	1967	3041.606619232835	6
0	1970	3042.249586445876	5
0	1972	3053.354883289058	6
0	1975	3059.525896696038	5
0	1977	3072.755265091627	4
0	1979	3073.238740937323	5
0	1982	3077.897151048148	6
0	1985	3080.717509730611	5
0	1987	3087.589542232693	6
0	1990	3101.50707156355	5
0	1992	3102.208212606925	4
0	1994	3103.23139701672	5
0	1997	3106.071904375625	4
0	1999	3108.796061457959	5
0	2002	3112.641829291929	6
0	2005	3115.825047371425	5
0	2007	3118.284993634359	6
0	2010	3119.2010503087	5
0	2012	3122.141720525523	4
0	2014	3127.860704728089	3
0	2016	3139.604824751778	2
0	2018	3140.210832672401	1
0	2020	3145.054271767237	2
0	2023	3147.029877239848	3
0	2026	3159.153883758061	4
0	2029	3159.191279188981	5
0	2032	3159.427650172814	4
0	2034	3162.296846046084	3
0	2036	3163.631934337843	4
0	2039	3164.570085761338	3
0	2041	3167.959962394672	4
0	2044	3168.837347500801	3
0	2046	3171.358346506748	4
0	2049	3171.754411873491	3
0	2051	3176.010574976855	2
0	2053	3177.987811443764	3
0	2056	3184.185838922727	4
0	2059	3194.291720928562	3
0	2061	3200.721360734932	2
0	2063	3200.921960584397	3
0	2066	3205.435967345435	4
0	2069	3211.734744851119	3
0	2071	3214.491289310484	4
0	2074	3226.700634850236	5
0	2077	3239.280004564235	4
0	2079	3240.452660167142	3
0	2081	3241.478797598973	4
0	2084	3250.283563642495	5
0	2087	3255.3678445119	4
0	2089	3265.457998866015	3
0	2091	3268.943889672232	2
0	2093	3271.130540048621	3
0	2096	3280.567874725719	4
0	2099	3295.358839791001	3
0	2101	3303.225345166807	4
0	2104	3306.596148827936	5
0	2107	3313.439292045147	4
0	2109	3319.138465160822	3
0	2111	3320.139537841689	4
0	2114	3323.534356639075	3
0	2116	3326.99954368596	4
0	2119	3328.126474490858	5
0	2122	3332.469234517857	6
0	2125	3335.874128328527	7
0	2128	3336.44265293357	8
0	2130	3338.313281343757	9
0	2132	3339.134400175857	10
0	2134	3339.890952236375	9
0	2137	3346.537353180639	8
0	2140	3351.86132119743	7
0	2143	3355.296632229665	8
0	2145	3357.349161138062	9
0	2147	3361.970548711262	8
0	2150	3363.227252752182	7
0	2153	3365.999318679005	6
0	2155	3366.562748394533	5
0	2157	3369.168026465497	4
0	2159	3369.923609454754	5
0	2162	3371.687209381339	4
0	2164	3374.36178099374	3
0	2166	3380.487356065209	2
0	2168	3382.297610526816	1
0	2170	3385.711453318919	2
0	2173	3389.145438586627	3
0	2176	3389.658940228801	2
0	2178	3391.783032283739	3
0	2181	3391.812864214416	2
0	2183	3396.591223291598	1
0	2185	3398.518818738306	2
0	2188	3399.589068476826	3
0	2191	3400.820278329915	2
0	2193	3411.362167022919	1
0	2195	3411.830630823334	0
0	2197	3412.67251258086	1
0	2200	3413.289814456325	2
0	2203	3427.615634136015	3
0	2206	3430.770010958284	4
0	2209	3432.613306957405	5
0	2212	3435.765867677893	4
0	2214	3437.864359833491	3
0	2216	3438.052102793893	2
0	2218	3440.576638429448	1
0	2220	3443.931010388011	2
0	2223	3454.425856445569	3
0	2226	3458.636073484645	4
0	2229	3467.253474797635	3
0	2231	3471.649322495016	4
0	2234	3482.950438508154	5
0	2237	3483.303132359498	6
0	2240	3485.822766609449	7
0	2243	3486.729795206813	8
0	2245	3489.446156113822	7
0	2248	3502.819886987469	8
0	2250	3505.273624419306	7
0	2253	3507.388507873473	8
0	2255	3517.47592470809	7
0	2258	3522.06582447134	6
0	2260	3525.108347459238	5
0	2262	3526.505987242403	4
0	2264	3533.289695408665	3
0	2266	3536.585582777138	4
0	2269	3538.481668529147	3
0	2271	3538.582316904692	4
0	2274	3541.843131207272	3
0	2276	3546.556484374229	2
0	2278	3549.867439809048	3
0	2281	3555.676091096225	2
0	2283	3566.87112672292	3
0	2286	3573.018881485228	2
0	2288	3590.434990815333	3
0	2291	3600.609793866178	4
0	2294	3602.229512409874	5
0	2297	3609.04234117754	4
0	2299	3612.215900127966	5
0	2302	3618.805358133438	4
0	2304	3621.347594483243	3
0	2306	3638.58258278684	2
0	2308	3642.472598958902	1
0	2310	3647.148185644979	2
0	2313	3652.913078806509	1
0	2315	3658.900713395877	2
0	2318	3659.230788341574	3
0	2321	3662.44353359212	4
0	2324	3666.466579191825	5
0	2327	3668.543071364996	6
0	2330	3669.566744516551	5
0	2332	3672.196578752795	4
0	2334	3675.844377549003	5
0	2337	3683.719734263646	6
0	2340	3685.024465500757	7
0	2343	3688.123079494688	6
0	2345	3689.306494740276	7
0	2348	3690.840068781575	8
0	2350	3702.681591257687	7
0	2353	3706.151490027061	6
0	2355	3712.929281344966	7
0	2358	3712.948438552524	6
0	2360	3714.21698436324	7
0	2363	3721.964574747623	6
0	2365	3722.444879165918	7
0	2368	3722.551482559145	8
0	2370	3724.370020632262	7
0	2373	3725.734725852489	6
0	2375	3726.465304855824	7
0	2378	3726.477640243962	8
0	2380	3727.110821575984	7
0	2383	3730.649740642638	6
0	2385	3731.890458138673	5
0	2387	3733.915539296097	4
0	2389	3734.332129442155	3
0	2391	3741.932417606203	4
0	2394	3742.269576534527	5
0	2397	3746.104096336178	6
0	2400	3747.117845900621	5
0	2402	3750.540077025545	6
0	2405	3752.11121200305	7
0	2408	3752.77049849524	6
0	2410	3754.836793595898	5
0	2412	3775.539994770788	4
0	2414	3775.756426897266	3
0	2416	3778.793792278701	4
0	2419	3780.51138060369	3
0	2421	3788.368223970339	2
0	2423	3790.967385749393	3
0	2426	3792.581244430404	4
0	2429	3797.693677447107	5
0	2432	3800.569077079696	4
0	2434	3806.764063517058	3
0	2436	3808.626811736318	4
0	2439	3808.797834450845	3
0	2441	3811.030037195375	4
0	2444	3812.619094914613	3
0	2446	3814.182284280039	2
0	2448	3814.350080225411	3
0	2451	3815.270142188563	2
0	2453	3823.781700865548	3
0	2456	3825.673013517208	2
0	2458	3832.205281238204	3
0	2461	3832.769756898259	2
0	2463	3851.661752261017	1
0	2465	3863.697888123449	2
0	2468	3871.895949147362	3
0	2471	3874.15754351121	4
0	2474	3874.43658160123	3
0	2476	3876.177119537207	4
0	2479	3877.076278014609	3
0	2481	3881.179946249337	2
0	2483	3888.671594476813	3
0	2486	3890.14203188489	2
0	2488	3899.770057894848	3
0	2491	3911.26521151594	4
0	2494	3916.107449364462	5
0	2497	3917.130478092591	6
0	2500	3918.675707180293	7
0	2503	3922.433241869318	6
0	2505	3928.275149304332	5
0	2507	3933.281676082338	6
0	2510	3935.636797394328	7
0	2513	3940.592089604541	8
0	2515	3944.975048510316	7
0	2518	3950.938313647609	8
0	2520	3952.013712088813	9
0	2522	3955.980870084734	10
0	2524	3958.148181215829	9
0	2527	3961.701640112528	8
0	2530	3962.129760016046	9
0	2532	3963.78970744873	8
0	2535	3966.039448531178	9
0	2537	3968.853092767473	10
0	2539	3979.467801907981	11
0	2541	3981.01380257673	12
0	2543	3988.861100580008	11
0	2546	3988.862614938102	10
0	2549	3998.206417736032	9
0	2552	4000.126460202469	8
0	2555	4007.70118916985	7
0	2558	4010.074193642579	8
0	2560	4010.734624685674	9
0	2562	4012.954762662624	10
0	2564	4014.476032870188	9
0	2567	4014.728909595262	10
0	2569	4016.580520836215	11
0	2571	4019.40579406604	10
0	2574	4021.071700451988	11
0	2576	4025.490569042071	12
0	2578	4033.704142104578	13
0	2580	4040.259502468751	12
0	2583	4041.97870533281	11
0	2586	4043.829078821637	12
0	2588	4044.560557138055	13
0	2590	4058.033540698507	12
0	2593	4059.827205836329	13
0	2595	4066.677627390735	12
0	2598	4069.889868734335	13
0	2600	4073.345042132945	14
0	2602	4074.203450749352	15
0	2604	4077.06161002571	14
0	2607	4077.81503701232	15
0	2609	4079.359823475075	16
0	2611	4082.087897406375	15
0	2614	4082.639139060242	16
0	2616	4084.987038973418	15
0	2619	4086.558313189931	14
0	2622	4092.634292009285	15
0	2624	4096.803703169382	16
0	2626	4108.604461728438	15
0	2629	4114.124652263214	16
0	2631	4114.622273818101	17
0	2633	4119.668464824068	16
0	2636	4122.141659445484	15
0	2639	4130.327014559676	14
0	2642	4136.822195296688	13
0	2645	4138.715861494856	12
0	2648	4146.816410781393	11
0	2651	4147.283989647444	12
0	2653	4148.387471472695	13
0	2655	4151.632854086252	12
0	2658	4153.141754156893	11
0	2661	4155.356634331837	10
0	2664	4156.852770488381	11
0	2666	4160.125117997958	10
0	2669	4162.699978767539	11
0	2671	4167.896640723488	12
0	2673	4170.616486581321	11
0	2676	4171.712644844612	10
0	2679	4181.525618003953	9
0	2682	4183.702810343961	8
0	2685	4185.097042258373	9
0	2687	4185.832101255011	10
0	2689	4187.258794302561	11
0	2691	4188.780238613248	10
0	2694	4190.516170553807	9
0	2697	4193.658516181918	8
0	2700	4193.807584936615	9
0	2702	4197.1273027728	8
0	2705	4197.387890497815	7
0	2708	4198.319576185949	6
0	2710	4202.126535552656	5
0	2712	4204.225062016939	6
0	2715	4205.823899154967	7
0	2718	4207.790155400037	8
0	2720	4213.569149587362	9
0	2722	4214.102454952307	8
0	2725	4216.444609966088	7
0	2728	4221.181469424017	6
0	2730	4227.981972633327	7
0	2733	4235.492925467439	8
0	2735	4236.341817691696	9
0	2737	4242.194918744354	8
0	2740	4250.67009515481	9
0	2742	4254.309166591031	10
0	2744	4256.551594666721	9
0	2747	4257.438713094863	10
0	2749	4261.319483254141	9
0	2752	4262.975554278154	8
0	2755	4264.55390005027	9
0	2757	4276.695549259849	8
0	2760	4277.957615631269	7
0	2763	4278.176713419417	6
0	2765	4290.868784013464	5
0	2767	4300.533109156519	6
0	2770	4303.891577566328	5
0	2772	4304.243073310337	4
0	2774	4305.622632806051	5
0	2777	4311.658853337474	4
0	2779	4316.145535638278	3
0	2781	4333.393789733325	2
0	2783	4337.789551463907	1
0	2785	4338.939825784171	0
0	2787	4347.929985097405	1
0	2790	4351.574204480838	2
0	2793	4365.570741402438	3
0	2796	4370.521426038707	2
0	2798	4373.19549964294	1
0	2800	4393.770622027966	2
0	2803	4403.247972541891	3
0	2806	4407.497561536578	2
0	2808	4409.328850702709	3
0	2811	4419.912997690636	4
0	2814	4424.036955588603	5
0	2817	4429.121715923966	4
0	2819	4440.689710598088	5
0	2822	4441.026676223611	6
0	2825	4451.237080003627	5
0	2827	4461.031062936865	4
0	2829	4463.884401559806	3
0	2831	4465.237882740447	4
0	2834	4467.864883761001	5
0	2837	4468.236769817335	4
0	2839	4483.163452673718	5
0	2842	4491.949649819492	6
0	2845	4500.143745708895	7
0	2848	4500.293373044877	8
0	2850	4500.904088964212	9
0	2852	4501.717619148165	8
0	2855	4502.770060445814	9
0	2857	4503.230791072901	8
0	2860	4503.467010785548	7
0	2863	4510.582309085798	8
0	2865	4510.766137734881	9
0	2867	4514.252054818461	10
0	2869	4514.691846238273	11
0	2871	4516.132313973258	12
0	2873	4520.659259732689	13
0	2875	4521.810455110633	12
0	2878	4537.526743469245	11
0	2881	4538.551106021153	12
0	2883	4541.262377693258	13
0	2885	4555.201127375561	14
0	2887	4555.930070561096	13
0	2890	4557.3586829497	14
0	2892	4558.264912932236	13
0	2895	4558.299402438528	12
0	2898	4563.34184896781	13
0	2900	4565.742438525857	12
0	2903	4570.626081055357	11
0	2906	4573.728946118561	12
0	2908	4578.70969925055	13
0	2910	4580.537184756901	14
0	2912	4582.862847032548	13
0	2915	4585.912988587509	14
0	2917	4587.697098875404	15
0	2919	4589.34943768059	14
0	2922	4590.113727383586	15
0	2924	4591.829043523842	14
0	2927	4599.437951366022	13
0	2930	4599.505416896287	14
0	2932	4602.657170087128	13
0	2935	4603.62727176854	14
0	2937	4605.924139669656	15
0	2939	4610.515255460975	16
0	2941	4611.749749813853	17
0	2943	4611.871114843513	18
0	2945	4612.996983005685	19
0	2947	4625.255455679366	18
0	2950	4630.869360506409	19
0	2952	4633.185884412581	18
0	2955	4638.592899268227	17
0	2958	4640.301705378944	16
0	2961	4643.330196494764	15
0	2964	4650.210585213737	14
0	2967	4650.695820302793	13
0	2970	4654.023272650577	14
0	2972	4654.259933471219	15
0	2974	4656.188793794878	16
0	2976	4657.047418226189	15
0	2979	4659.921897107996	16
0	2981	4666.413951760893	15
0	2984	4668.193186193005	14
0	2987	4669.022919753412	15
0	2989	4669.829206096149	16
0	2991	4674.967209999703	17
0	2993	4676.722059093638	18
0	2995	4683.421632410834	17
0	2998	4683.556972962445	18
0	3000	4684.07567508342	17
0	3003	4687.775301419836	16
0	3006	4690.383712690995	15
0	3009	4696.149122802585	14
0	3012	4706.393698052266	15
0	3014	4710.700823824127	16
0	3016	4712.460425999918	15
0	3019	4713.127004428985	14
0	3022	4713.349185000742	13
0	3025	4714.413265681347	14
0	3027	4715.556500569424	15
0	3029	4715.97350573093	14
0	3032	4726.001615969024	15
0	3034	4727.420415012172	14
0	3037	4729.213283976886	15
0	3039	4730.29214885524	16
0	3041	4731.539958611828	17
0	3043	4732.492404827271	16
0	3046	4733.855111345473	17
0	3048	4746.664618072906	16
0	3051	4748.354574350232	17
0	3053	4753.250530132792	16
0	3056	4754.353516134748	15
0	3059	4761.833365092749	14
0	3062	4765.399462853581	15
0	3064	4766.356987047683	14
0	3067	4769.661533311841	15
0	3069	4777.346116234341	14
0	3072	4785.692101778841	13
0	3075	4788.350350380922	14
0	3077	4788.592224235076	15
0	3079	4788.730961545489	14
0	3082	4791.305546009985	15
0	3084	4798.832846170775	14
0	3087	4798.95759397702	13
0	3090	4802.759534136376	12
0	3093	4806.505463108666	13
0	3095	4806.846902640506	12
0	3098	4822.59210442252	11
0	3101	4822.89289414998	10
0	3104	4833.386148436928	9
0	3107	4833.82291788055	10
0	3109	4835.919506706864	11
0	3111	4837.136383764419	10
0	3114	4844.742863147073	11
0	3116	4846.794661360923	10
0	3119	4852.636754907936	9
0	3122	4854.906267552394	8
0	3125	4858.406852006133	7
0	3128	4859.215655318363	6
0	3130	4860.627655799241	5
0	3132	4863.651962187233	6
0	3135	4866.858660408997	5
0	3137	4869.245393275538	6
0	3140	4869.414756770087	5
0	3142	4869.563966228215	4
0	3144	4869.583141816664	3
0	3146	4872.241635904009	4
0	3149	4872.326748823296	3
0	3151	4875.651936149749	2
0	3153	4876.040188403497	3
0	3156	4881.079114166229	4
0	3159	4884.37140163499	5
0	3162	4890.493146452185	4
0	3164	4905.381221599566	3
0	3166	4910.063822356772	4
0	3169	4915.597385830103	3
0	3171	4919.83019961885	2
0	3173	4920.51443680409	1
0	3175	4934.358039958117	2
0	3178	4941.551803397058	1
0	3180	4950.552727062653	2
0	3183	4960.008691120715	3
0	3186	4961.983950082867	4
0	3189	4968.094253282094	5
0	3192	4977.854549385911	6
0	3195	4978.0999905087	5
0	3197	4978.210259159363	6
0	3200	4979.599752087126	5
0	3202	4979.978915964599	4
0	3204	4982.969911451024	5
0	3207	4985.245286603798	6
0	3210	4986.003887210894	7
0	3213	4988.760981383455	6
0	3215	4995.762129102475	5
0	3217	5008.945516383739	6
0	3220	5009.646575340202	5
0	3222	5014.693413498664	6
0	3225	5015.60308682626	5
0	3227	5021.204372819371	6
0	3230	5024.370928188229	7
0	3233	5027.91026289031	8
0	3235	5034.798505697088	7
0	3238	5043.947627880614	8
0	3240	5044.023590369633	9
0	3242	5047.336578075414	8
0	3245	5054.972446114807	9
0	3247	5057.31184073006	10
0	3249	5060.491808385944	9
0	3252	5060.948235281416	10
0	3254	5063.29490407473	11
0	3256	5074.352208499495	12
0	3258	5074.827355490773	11
0	3261	5075.849455361516	12
0	3263	5078.969694071337	11
0	3266	5079.201548443922	10
0	3269	5079.522729264076	9
0	3272	5081.503722643848	10
0	3274	5084.88843827089	11
0	3276	5088.887579432194	12
0	3278	5090.699262333235	13
0	3280	5091.811463457439	12
0	3283	5093.03542701608	13
0	3285	5093.55516235774	14
0	3287	5094.575780833617	13
0	3290	5106.539838221699	12
0	3293	5106.873634387196	13
0	3295	5107.698409186241	14
0	3297	5110.208969017871	13
0	3300	5113.935397101698	12
0	3303	5119.450051717051	13
0	3305	5120.22939687394	12
0	3308	5120.625625849479	11
0	3311	5121.177168082753	10
0	3314	5124.646227294013	9
0	3317	5124.768520034704	8
0	3320	5124.943039726683	9
0	3322	5137.648964069352	10
0	3324	5138.226610543079	11
0	3326	5139.778172651483	12
0	3328	5149.998837119832	11
0	3331	5151.464299570947	10
0	3334	5151.475373231105	9
0	3337	5152.010855103663	8
0	3340	5152.911330040272	7
0	3343	5161.664038893282	8
0	3345	5165.266872967789	7
0	3348	5165.903829802429	6
0	3350	5169.07761314206	7
0	3353	5170.683895445154	6
0	3355	5170.923971486211	7
0	3358	5174.030539052771	6
0	3360	5174.233183318265	7
0	3363	5178.622342272112	6
0	3365	5179.22532222074	7
0	3368	5192.72500967667	6
0	3370	5199.409931856908	5
0	3372	5199.484864539967	4
0	3374	5199.536252484833	5
0	3377	5202.775863244251	4
0	3379	5203.82086459212	5
0	3382	5206.919606247462	4
0	3384	5207.176232903881	5
0	3387	5209.931242464043	6
0	3390	5218.30195062969	7
0	3393	5221.428870501552	8
0	3395	5223.237660480971	9
0	3397	5223.349021551319	8
0	3400	5225.139633549819	9
0	3402	5226.469865680034	8
0	3405	5229.155847803322	7
0	3408	5233.61458679843	6
0	3410	5243.277745399112	7
0	3413	5245.908759421439	8
0	3415	5250.316335823535	7
0	3418	5253.287290582795	6
0	3420	5259.406496419966	7
0	3423	5259.602511862317	6
0	3425	5259.803060071005	5
0	3427	5260.288238802024	4
0	3429	5260.402888688217	5
0	3432	5274.51083844559	6
0	3435	5276.59542503833	5
0	3437	5281.256394807985	4
0	3439	5283.861019105789	5
0	3442	5292.314238619129	6
0	3445	5293.58323871527	5
0	3447	5300.588668149082	6
0	3450	5304.937405702242	5
0	3452	5311.040725369675	4
0	3454	5312.498383234425	5
0	3457	5315.484644592528	6
0	3460	5316.937021939951	5
0	3462	5324.560857199958	4
0	3464	5325.722582218885	5
0	3467	5334.245626557648	4
0	3469	5337.320235442919	3
0	3471	5338.610577851008	2
0	3473	5342.704645500316	3
0	3476	5343.422876904943	2
0	3478	5358.221015893613	3
0	3481	5362.127995611633	4
0	3484	5364.056065986575	3
0	3486	5392.149216545622	4
0	3489	5398.102184872056	3
0	3491	5399.704460741131	4
0	3494	5405.152758704699	5
0	3497	5406.853013511942	4
0	3499	5411.077509396108	5
0	3502	5414.145482613844	6
0	3505	5417.290496572682	7
0	3508	5419.289514238306	6
0	3510	5425.723291556312	7
0	3513	5433.204445209815	6
0	3515	5434.288016380729	5
0	3517	5446.973456139671	6
0	3520	5447.816028634741	7
0	3523	5450.581107462843	6
0	3525	5460.488073169807	5
0	3527	5462.897634226457	6
0	3530	5462.912709683008	7
0	3533	5474.682042028309	6
0	3535	5477.629707039294	7
0	3538	5477.872725466823	6
0	3540	5478.056020071508	7
0	3543	5479.680962205951	6
0	3545	5488.469885481174	5
0	3547	5488.516536195403	4
0	3549	5489.086760206253	3
0	3551	5494.321274767778	2
0	3553	5499.625648152002	1
0	3555	5502.739286782049	2
0	3558	5504.831688527253	1
0	3560	5508.678312874848	0
0	3562	5511.248523906819	1
0	3565	5511.26840797653	2
0	3568	5518.876116205155	3
0	3571	5519.144785248909	2
0	3573	5524.296182614621	3
0	3576	5530.479925131249	4
0	3579	5536.233461654939	3
0	3581	5550.414200052569	2
0	3583	5552.713689120599	3
0	3586	5571.315983792038	4
0	3589	5572.470890065743	5
0	3592	5575.164338345759	6
0	3595	5577.412576468917	7
0	3598	5583.753172187081	6
0	3600	5585.208791092594	5
0	3602	5585.3940448792	6
0	3605	5591.020625846083	7
0	3608	5594.477467192786	6
0	3610	5596.239437147886	7
0	3613	5604.988717310249	6
0	3615	5605.315546079107	7
0	3618	5614.297706705613	8
0	3620	5615.288561712627	7
0	3623	5617.534549976081	8
0	3625	5619.419849423761	7
0	3628	5622.777095952546	8
0	3630	5625.70356733878	9
0	3632	5627.10103222249	10
0	3634	5635.709081377362	9
0	3637	5639.06269204459	10
0	3639	5639.317111109482	11
0	3641	5639.584357059595	12
0	3643	5643.821039126452	11
0	3646	5657.785212957894	10
0	3649	5662.769513732955	11
0	3651	5665.259817297568	10
0	3654	5675.096194793479	11
0	3656	5687.026690217786	12
0	3658	5691.503180447878	13
0	3660	5691.506494930301	12
0	3663	5695.602553910809	11
0	3666	5696.417822952776	10
0	3669	5700.587922503629	9
0	3672	5705.912183468389	8
0	3675	5712.321613926954	7
0	3678	5713.256452561909	8
0	3680	5714.831268821394	7
0	3683	5716.553108581638	6
0	3685	5721.18908234209	7
0	3688	5722.83414348797	6
0	3690	5723.297448010495	7
0	3693	5724.196757684827	6
0	3695	5728.59899439713	5
0	3697	5730.015575236151	4
0	3699	5733.077340400045	5
0	3702	5733.921274127231	6
0	3705	5734.750557589556	7
0	3708	5734.915939999875	6
0	3710	5736.264321322068	5
0	3712	5744.940475273651	6
0	3715	5747.508075916016	5
0	3717	5752.39317732201	4
0	3719	5758.985476530524	3
0	3721	5763.674922490239	4
0	3724	5773.606123756435	5
0	3727	5777.114511592989	4
0	3729	5787.427953472597	5
0	3732	5789.665084336478	6
0	3735	5793.42999719952	7
0	3738	5801.638236406161	8
0	3740	5803.37149673854	9
0	3742	5805.136669019123	10
0	3744	5805.655584040577	11
0	3746	5807.459750064132	12
0	3748	5810.412147363997	13
0	3750	5810.589148304277	12
0	3753	5815.590071932547	11
0	3756	5816.122789646169	10
0	3759	5827.814374335954	9
0	3762	5828.324295525531	8
0	3765	5829.418507755708	9
0	3767	5829.931349245458	8
0	3770	5837.834517745518	7
0	3773	5839.410044781878	8
0	3775	5842.138549974773	7
0	3778	5845.23659189301	6
0	3780	5846.347639691136	7
0	3783	5857.464578341455	6
0	3785	5858.469664525334	5
0	3787	5859.768590645223	6
0	3790	5863.812723022371	7
0	3793	5866.003215684592	6
0	3795	5866.975910208921	7
0	3798	5870.429566645763	6
0	3800	5879.11652586609	7
0	3803	5881.107190504327	8
0	3805	5881.790602457996	9
0	3807	5883.216256257492	8
0	3810	5883.81322906329	7
0	3813	5884.339994813552	6
0	3815	5884.963369107795	7
0	3818	5886.084437602643	6
0	3820	5890.341557142635	7
0	3823	5893.852007803682	6
0	3825	5894.180938913764	5
0	3827	5896.801927393046	4
0	3829	5912.300257807125	3
0	3831	5917.017385053697	4
0	3834	5921.364688915554	3
0	3836	5927.418479342159	4
0	3839	5928.226689412907	5
0	3842	5933.151591640912	6
0	3845	5934.567240518364	7
0	3848	5941.245436701668	6
0	3850	5950.409888644801	7
0	3853	5952.390941823784	6
0	3855	5952.94041349058	5
0	3857	5953.518035345073	4
0	3859	5959.889504117791	5
0	3862	5962.027952815782	6
0	3865	5963.232336225982	7
0	3868	5966.080266431279	8
0	3870	5968.561061067196	9
0	3872	5973.383354420064	8
0	3875	5974.682383619194	9
0	3877	5977.374161309604	8
0	3880	5984.983947234952	7
0	3883	5987.685941115451	8
0	3885	5998.392563767058	7
0	3888	6000.010493221483	8
0	3890	6000.192301774608	7
0	3893	6002.870887668375	8
0	3895	6006.25112792949	7
0	3898	6011.032927605906	8
0	3900	6013.035212334374	7
0	3903	6018.303805762796	8
0	3905	6019.883364942611	7
0	3908	6023.717976154524	6
0	3910	6025.069370567224	5
0	3912	6025.918606558456	4
0	3914	6029.988528408144	5
0	3917	6036.792782442699	6
0	3920	6051.094378098321	5
0	3922	6051.175729513752	6
0	3925	6053.643636116891	7
0	3928	6054.694966333575	6
0	3930	6056.198836727113	5
0	3932	6062.457891736885	6
0	3935	6063.881120548622	5
0	3937	6064.745858769491	6
0	3940	6065.867908424819	7
0	3943	6068.60417527054	8
0	3945	6070.52996312854	9
0	3947	6072.447756890571	8
0	3950	6080.537139689878	7
0	3953	6086.592135162423	6
0	3955	6087.22588748455	7
0	3958	6091.113767182989	8
0	3960	6091.265257678248	9
0	3962	6092.849303054147	8
0	3965	6093.892557198947	7
0	3968	6097.934030282534	6
0	3970	6098.113300239343	5
0	3972	6103.821903455106	4
0	3974	6105.979216282954	5
0	3977	6106.748100766802	6
0	3980	6107.03962842157	7
0	3983	6108.552816642784	6
0	3985	6110.378431563436	7
0	3988	6115.390446368493	6
0	3990	6115.744141690469	7
0	3993	6117.734927054786	8
0	3995	6119.368358203888	7
0	3998	6123.447105714823	6
0	4000	6125.577276994938	7
0	4003	6132.197243594049	8
0	4005	6134.3144343983	7
0	4008	6134.719946325774	8
0	4010	6138.033315593395	7
0	4013	6139.110762215636	6
0	4015	6140.922809832232	7
0	4018	6144.884630656649	6
0	4020	6145.775633808424	5
0	4022	6145.825075098904	6
0	4025	6151.296386589119	7
0	4028	6152.735539313539	6
0	4030	6157.754554247358	7
0	4033	6158.001450755303	6
0	4035	6160.616564903837	7
0	4038	6163.254946001522	6
0	4040	6170.333098666247	5
0	4042	6171.544582966217	6
0	4045	6177.275069762757	7
0	4048	6179.17489438792	6
0	4050	6179.828508412497	5
0	4052	6192.150373314622	4
0	4054	6192.750413316838	3
0	4056	6195.893319225505	2
0	4058	6195.971626119037	3
0	4061	6198.194518846995	2
0	4063	6208.314407454438	3
0	4066	6210.171916644097	4
0	4069	6223.563966346049	5
0	4072	6224.726057131998	6
0	4075	6228.198026491579	5
0	4077	6230.81474015141	6
0	4080	6233.727745626036	7
0	4083	6240.356264031563	6
0	4085	6246.86075769622	7
0	4088	6252.162826115207	8
0	4090	6252.441839360971	9
0	4092	6262.092601465749	8
0	4095	6273.532711794148	7
0	4098	6276.59429118726	6
0	4100	6278.3075003407	5
0	4102	6278.674390712712	4
0	4104	6287.989812626881	3
0	4106	6303.577988583736	2
0	4108	6310.752976861348	3
0	4111	6312.091489498217	4
0	4114	6321.964349314749	5
0	4117	6332.996834911589	6
0	4120	6336.524497876852	5
0	4122	6338.716684273972	4
0	4124	6339.162363878219	5
0	4127	6342.201948157201	4
0	4129	6342.625507922144	3
0	4131	6343.04973582608	4
0	4134	6344.644842744326	5
0	4137	6346.804253243905	4
0	4139	6347.705457145371	5
0	4142	6348.448077192508	6
0	4145	6355.237298686739	7
0	4148	6355.478151007794	6
0	4150	6357.781392896225	7
0	4153	6361.508472519239	8
0	4155	6365.601224281695	7
0	4158	6365.624390005516	8
0	4160	6374.491603824439	7
0	4163	6378.109904507417	6
0	4165	6378.391281161288	5
0	4167	6384.846277904617	6
0	4170	6385.401923566726	7
0	4173	6388.815122032987	6
0	4175	6389.316670735437	7
0	4178	6390.763569785578	6
0	4180	6391.552527038971	5
0	4182	6397.141139202029	6
0	4185	6397.916985504674	5
0	4187	6398.801703416269	4
0	4189	6410.913053762052	3
0	4191	6411.616415327657	4
0	4194	6412.032950377658	5
0	4197	6418.294273036997	4
0	4199	6419.398628703059	5
0	4202	6422.296428972248	6
0	4205	6429.927179455908	5
0	4207	6430.836102262723	4
0	4209	6437.333089070216	3
0	4211	6438.818342704448	2
0	4213	6441.741483879886	3
0	4216	6443.543079610958	4
0	4219	6448.837098287883	5
0	4222	6452.931919073847	4
0	4224	6465.411287250848	3
0	4226	6466.218614122891	2
0	4228	6468.999889248256	1
0	4230	6480.198979737356	2
0	4233	6487.041649679422	1
0	4235	6505.658186608667	2
0	4238	6508.225487750506	3
0	4241	6509.373570272474	2
0	4243	6515.103063400646	3
0	4246	6516.727367145386	2
0	4248	6518.44717043889	3
0	4251	6518.672261984792	4
0	4254	6526.859877402757	5
0	4257	6537.60179875785	6
0	4260	6544.333808475131	5
0	4262	6544.348295092794	4
0	4264	6546.408952309609	5
0	4267	6562.218303717884	6
0	4270	6566.18805589443	5
0	4272	6571.539498394421	4
0	4274	6572.539458092801	3
0	4276	6574.615012293796	2
0	4278	6575.703268374359	3
0	4281	6576.533274087648	4
0	4284	6578.2229080573	3
0	4286	6580.060062057402	4
0	4289	6587.889221142813	3
0	4291	6606.500607713452	2
0	4293	6606.531130260028	3
0	4296	6608.668979293233	2
0	4298	6619.077432691676	1
0	4300	6668.540749422683	2
0	4303	6675.171129182664	3
0	4306	6680.124472175789	4
0	4309	6690.246289334592	3
0	4311	6690.922687748447	4
0	4314	6695.756795139394	3
0	4316	6698.482657464655	4
0	4319	6700.511493122517	5
0	4322	6706.732997583905	4
0	4324	6716.101110937436	3
0	4326	6716.104943416468	2
0	4328	6717.300587481065	1
0	4330	6729.309761893665	2
0	4333	6751.97628840099	3
0	4336	6753.806988549599	4
0	4339	6762.054508382884	5
0	4342	6763.491661550594	6
0	4345	6769.761816592406	7
0	4348	6771.189307448893	8
0	4350	6771.634423393515	7
0	4353	6775.287619193714	6
0	4355	6787.576405424087	5
0	4357	6794.567797101756	4
0	4359	6795.379343541969	3
0	4361	6797.223298723697	4
0	4364	6802.221190134175	3
0	4366	6803.451236634173	2
0	4368	6831.599413865191	3
0	4371	6838.112333268737	4
0	4374	6854.165329607523	5
0	4377	6859.775583029053	4
0	4379	6860.233959002489	5
0	4382	6861.100322713546	4
0	4384	6867.898015495785	5
0	4387	6868.264415074128	6
0	4390	6874.035779864314	5
0	4392	6876.526338925906	4
0	4394	6880.298966270197	3
0	4396	6890.282843147575	4
0	4399	6891.812833653326	3
0	4401	6896.099320806197	2
0	4403	6896.606964915907	3
0	4406	6897.934149357041	4
0	4409	6904.054855486732	3
0	4411	6908.846057838995	4
0	4414	6912.641017265549	5
0	4417	6916.317050192923	6
0	4420	6922.234903787887	7
0	4423	6923.799679028814	6
0	4425	6929.370976402246	5
0	4427	6931.333546230673	6
0	4430	6932.303375356008	7
0	4433	6938.946258057795	8
0	4435	6954.568297063338	9
0	4437	6956.433595826646	10
0	4439	6958.018206415067	11
0	4441	6958.96889828152	10
0	4444	6960.498196471808	9
0	4447	6964.349826221475	10
0	4449	6968.438358643855	11
0	4451	6973.60829556368	12
0	4453	6974.631192133461	11
0	4456	6977.108825976106	12
0	4458	6980.405356224827	13
0	4460	6982.112903626146	14
0	4462	6988.01380384637	13
0	4465	6988.60676867816	12
0	4468	6990.805627317441	13
0	4470	6991.846842311144	14
0	4472	6992.351670841212	15
0	4474	6993.156382051717	14
0	4477	6993.551264049995	13
0	4480	7009.262914654354	14
0	4482	7012.994468619871	15
0	4484	7017.366941893922	14
0	4487	7019.480012664821	13
0	4490	7019.900451061381	12
0	4493	7022.397836972691	11
0	4496	7026.277525855247	12
0	4498	7030.832361153886	13
0	4500	7033.054543855143	14
0	4502	7048.784967265784	13
0	4505	7057.204955651735	12
0	4508	7058.658837005021	11
0	4511	7062.211185137922	12
0	4513	7062.603131800584	11
0	4516	7064.350315872606	10
0	4519	7068.162431411267	11
0	4521	7071.196326829536	10
0	4524	7072.860132201612	9
0	4527	7076.676053709301	8
0	4530	7077.425021314341	7
0	4533	7077.746340194724	8
0	4535	7077.834571175225	7
0	4538	7078.254112906382	8
0	4540	7086.117588428814	9
0	4542	7086.704964583811	8
0	4545	7099.074666270381	9
0	4547	7099.873219207074	8
0	4550	7100.430962667461	9
0	4552	7101.793332341477	10
0	4554	7105.237673326151	9
0	4557	7106.362077519896	10
0	4559	7108.14562018916	9
0	4562	7111.593743863594	8
0	4565	7114.335383536523	7
0	4568	7118.948034805072	6
0	4570	7124.815360220533	5
0	4572	7128.891033557617	6
0	4575	7132.603016415309	7
0	4578	7138.600054413788	8
0	4580	7138.85316424845	7
0	4583	7140.721469382518	6
0	4585	7143.369384443683	5
0	4587	7148.077112747167	4
0	4589	7148.775009280456	3
0	4591	7160.116420322968	2
0	4593	7161.160523373013	3
0	4596	7165.244371369705	2
0	4598	7168.541907703917	3
0	4601	7173.36569274131	4
0	4604	7174.199374672738	3
0	4606	7176.178568643788	2
0	4608	7180.868185075186	1
0	4610	7181.893312173784	2
0	4613	7188.298157589789	1
0	4615	7197.347002906467	2
0	4618	7199.837377602825	1
0	4620	7202.240433774835	2
0	4623	7209.825970449686	1
0	4625	7210.721996291281	2
0	4628	7220.105078987064	3
0	4631	7237.019791609689	4
0	4634	7241.324376319628	5
0	4637	7241.351104462423	6
0	4640	7242.682148087397	5
0	4642	7255.19498516187	6
0	4645	7258.814655626248	5
0	4647	7260.376045660033	4
0	4649	7275.894565997449	5
0	4652	7280.732235762714	4
0	4654	7281.450563329397	3
0	4656	7289.090911081816	2
0	4658	7300.560284826454	3
0	4661	7306.53370292574	2
0	4663	7323.424844467119	1
0	4665	7324.735869140171	2
0	4668	7328.306494979317	3
0	4671	7329.653233766437	4
0	4674	7329.955578103059	5
0	4677	7330.4993310641	6
0	4680	7332.857148960177	5
0	4682	7338.806558044011	6
0	4685	7338.86547093428	5
0	4687	7341.85996103299	6
0	4690	7345.615641290265	7
0	4693	7352.662169985346	8
0	4695	7353.510269008914	9
0	4697	7356.89413548179	8
0	4700	7359.451176215643	9
0	4702	7362.367777388724	10
0	4704	7364.7190937486	9
0	4707	7366.936950179978	10
0	4709	7369.669971053491	11
0	4711	7378.700109100721	10
0	4714	7380.936184426076	9
0	4717	7387.273520527763	8
0	4720	7389.175116267673	9
0	4722	7390.19488405028	8
0	4725	7390.543717172542	7
0	4728	7402.375808640652	8
0	4730	7403.091571215735	7
0	4733	7404.307373496993	6
0	4735	7409.127134912137	7
0	4738	7411.359416991228	8
0	4740	7419.207899613622	7
0	4743	7433.120814120482	8
0	4745	7433.540036206126	9
0	4747	7436.424370443348	8
0	4750	7440.407123622576	9
0	4752	7444.21482269263	10
0	4754	7445.853128980219	11
0	4756	7452.581063491842	10
0	4759	7462.814966815777	9
0	4762	7464.066254237026	8
0	4765	7467.053173100869	9
0	4767	7468.189650052939	8
0	4770	7474.220885664584	7
0	4773	7476.234471498788	6
0	4775	7481.148200231375	5
0	4777	7499.227301806236	6
0	4780	7499.421190040078	7
0	4783	7500.121461926485	6
0	4785	7502.583384686839	5
0	4787	7504.918593632862	4
0	4789	7510.34429252648	3
0	4791	7528.346764763332	2
0	4793	7538.755858931384	1
0	4795	7551.456929875687	2
0	4798	7551.561374268058	3
0	4801	7556.292861563971	4
0	4804	7557.360995271906	5
0	4807	7564.286547959622	4
0	4809	7568.859357844522	5
0	4812	7571.367486887344	4
0	4814	7571.63499524976	5
0	4817	7579.73219884377	6
0	4820	7580.133987216397	5
0	4822	7580.86377121518	4
0	4824	7588.35138555267	3
0	4826	7589.820734006317	4
0	4829	7591.459666561619	5
0	4832	7595.784317467173	4
0	4834	7596.077171388988	5
0	4837	7603.001989640685	6
0	4840	7604.148384692167	7
0	4843	7605.355559442384	6
0	4845	7609.37490857147	5
0	4847	7611.867540054586	4
0	4849	7612.64451253957	5
0	4852	7612.875895219695	6
0	4855	7620.081997945593	7
0	4858	7621.137090209197	6
0	4860	7623.666834573227	5
0	4862	7625.781200642338	6
0	4865	7632.01915291494	7
0	4868	7632.968997498749	6
0	4870	7634.328975002808	7
0	4873	7634.937612913962	6
0	4875	7636.991631005808	5
0	4877	7640.308866099443	4
0	4879	7641.498509001349	5
0	4882	7647.671825216644	4
0	4884	7653.392867729916	3
0	4886	7654.45471324951	2
0	4888	7655.656731897441	3
0	4891	7665.531945398146	4
0	4894	7667.269501822496	3
0	4896	7668.037522802402	2
0	4898	7668.58555029363	3
0	4901	7677.834231535295	2
0	4903	7680.377046918246	3
0	4906	7706.722615927436	4
0	4909	7707.468755807769	5
0	4912	7707.671615045271	6
0	4915	7720.743140012884	5
0	4917	7727.252085155346	6
0	4920	7729.67733411624	7
0	4923	7734.399314030453	6
0	4925	7734.454577477916	7
0	4928	7742.426759346586	8
0	4930	7742.88805955916	7
0	4933	7746.230667308468	6
0	4935	7751.561455148441	5
0	4937	7751.968941901358	6
0	4940	7756.621837508176	7
0	4943	7760.545304553699	8
0	4945	7761.584718075998	7
0	4948	7764.501344338498	6
0	4950	7765.522899221636	7
0	4953	7765.94215284258	8
0	4955	7771.551941652974	9
0	4957	7773.330854384312	8
0	4960	7780.268557627977	9
0	4962	7786.694841385358	8
0	4965	7793.335068791023	9
0	4967	7794.163400744725	8
0	4970	7796.976437474016	9
0	4972	7797.344908427499	8
0	4975	7798.176130632465	9
0	4977	7799.941121484433	8
0	4980	7800.663338424018	7
0	4983	7801.777184652783	6
0	4985	7804.61376699996	7
0	4988	7807.85076764097	8
0	4990	7810.331168968568	9
0	4992	7814.666481270126	8
0	4995	7814.955070711819	7
0	4998	7819.136965862125	6
0	5000	7820.164949356905	7
0	5003	7821.988952813832	8
0	5005	7823.936901890219	7
0	5008	7825.329188897674	8
0	5010	7827.481962193002	7
0	5013	7828.13933364382	8
0	5015	7828.609165681097	7
0	5018	7848.6574525232	8
0	5020	7850.563920389828	7
0	5023	7855.153936140802	6
0	5025	7863.41203507238	7
0	5028	7871.696114174369	6
0	5030	7873.594725620289	5
0	5032	7882.389442683372	4
0	5034	7883.948289249604	5
0	5037	7887.522305670807	4
0	5039	7900.702940308558	3
0	5041	7904.566064012027	4
0	5044	7913.290322021315	5
0	5047	7916.720536950288	4
0	5049	7917.5110540534	3
0	5051	7923.13402730793	2
0	5053	7931.634727206217	1
0	5055	7944.039101825911	2
0	5058	7950.66276255439	1
0	5060	7956.365924419478	2
0	5063	7960.645927709392	3
0	5066	7964.673841747449	4
0	5069	7965.167612449378	3
0	5071	7976.542861525884	4
0	5074	7985.388855331567	5
0	5077	7986.860748839428	6
0	5080	7987.095890782093	7
0	5083	7987.689195918766	6
0	5085	7991.220123595503	5
0	5087	7998.004514031456	6
0	5090	8002.982875305698	5
0	5092	8009.475777343792	6
0	5095	8010.201417742427	5
0	5097	8013.891824313178	6
0	5100	8016.38510744774	7
0	5103	8020.272218147843	6
0	5105	8030.327454635949	5
0	5107	8031.253025528049	6
0	5110	8033.687883696353	5
0	5112	8035.764306338323	6
0	5115	8037.519712659357	7
0	5118	8043.748797187314	8
0	5120	8048.877220466807	7
0	5123	8052.692700103983	6
0	5125	8054.341106579724	5
0	5127	8055.729900420463	4
0	5129	8057.419131181221	5
0	5132	8059.129796647635	4
0	5134	8061.36777202929	5
0	5137	8061.742986748199	4
0	5139	8061.968365421344	5
0	5142	8068.2708668282	6
0	5145	8071.511256040013	5
0	5147	8083.242885470494	6
0	5150	8089.832911081823	5
0	5152	8091.412820138587	4
0	5154	8093.275342650061	5
0	5157	8097.683649195644	6
0	5160	8100.99503251315	5
0	5162	8105.731463800728	4
0	5164	8107.820771775079	5
0	5167	8109.03425415169	6
0	5170	8114.429285243698	5
0	5172	8117.10946635977	4
0	5174	8119.07274239372	3
0	5176	8127.886124270848	2
0	5178	8134.727968853923	3
0	5181	8136.398179024702	2
0	5183	8137.483540562986	1
0	5185	8137.649280376493	2
0	5188	8158.493211515484	1
0	5190	8161.550675815451	2
0	5193	8168.477339930754	1
0	5195	8171.436088168443	2
0	5198	8171.778396171798	3
0	5201	8176.50723706591	4
0	5204	8176.808275781593	3
0	5206	8180.231564512607	4
0	5209	8181.998492681781	3
0	5211	8182.356470155124	4
0	5214	8184.814538923416	5
0	5217	8186.997049472913	6
0	5220	8189.617610538463	7
0	5223	8193.967386524641	6
0	5225	8194.4887048373	5
0	5227	8199.069386945294	6
0	5230	8200.169048536265	7
0	5233	8203.999211881884	6
0	5235	8208.516803897566	7
0	5238	8215.663744088607	8
0	5240	8216.192222375466	9
0	5242	8217.568391368191	10
0	5244	8229.223105234712	9
0	5247	8230.960957894365	10
0	5249	8236.943192680955	9
0	5252	8237.829731901799	10
0	5254	8239.038028541199	11
0	5256	8240.358165047132	10
0	5259	8242.181271208209	9
0	5262	8245.720556114823	10
0	5264	8247.921992512621	11
0	5266	8251.042152208181	12
0	5268	8251.154163300361	13
0	5270	8257.689808681024	12
0	5273	8264.141481220973	11
0	5276	8265.180513188154	12
0	5278	8269.07288957729	11
0	5281	8270.826399245882	12
0	5283	8272.335975001139	11
0	5286	8279.155232368506	10
0	5289	8280.02296680369	9
0	5292	8283.245549685064	10
0	5294	8289.884640478041	9
0	5297	8293.232577693013	8
0	5300	8294.533111611235	7
0	5303	8298.472373930513	8
0	5305	8301.058154978743	9
0	5307	8301.398477863965	8
0	5310	8303.517174656352	7
0	5313	8303.598830402956	6
0	5315	8316.949137750907	5
0	5317	8319.883246884416	4
0	5319	8322.302244478597	5
0	5322	8322.887029330578	6
0	5325	8327.865703054478	7
0	5328	8329.085291850749	6
0	5330	8330.560163912525	7
0	5333	8331.427523469419	8
0	5335	8334.390515523212	9
0	5337	8336.902589092642	8
0	5340	8337.879902171105	7
0	5343	8339.534790012522	8
0	5345	8339.658781843047	9
0	5347	8341.772843880175	8
0	5350	8342.403869588704	9
0	5352	8343.404479054792	8
0	5355	8344.400724352271	9
0	5357	8347.362248846763	10
0	5359	8347.715710697924	11
0	5361	8347.907945674722	10
0	5364	8349.942414595923	11
0	5366	8350.528978398253	12
0	5368	8357.884657847244	11
0	5371	8364.280464497782	10
0	5374	8368.699834391012	9
0	5377	8369.02110066179	8
0	5380	8375.108423996806	9
0	5382	8378.919310787693	8
0	5385	8394.190536246463	9
0	5387	8398.24268659744	10
0	5389	8403.457896494647	11
0	5391	8403.486535207196	12
0	5393	8404.516849009742	13
0	5395	8409.986577981337	14
0	5397	8411.868280916092	15
0	5399	8421.505338311074	16
0	5401	8423.893728316523	15
0	5404	8430.146507146801	14
0	5407	8433.363894311841	15
0	5409	8441.458555944379	14
0	5412	8444.777462337606	13
0	5415	8446.874787805569	14
0	5417	8448.707492463659	13
0	5420	8450.562409454848	12
0	5423	8453.278610895766	13
0	5425	8458.153887241803	12
0	5428	8461.000922676361	11
0	5431	8463.464765641727	10
0	5434	8464.478085025971	11
0	5436	8466.23369460993	10
0	5439	8470.68020240325	11
0	5441	8473.405400213881	10
0	5444	8476.044934590644	9
0	5447	8480.369854239106	10
0	5449	8480.556890581026	11
0	5451	8482.323017960759	12
0	5453	8483.501277906364	13
0	5455	8486.948838344201	14
0	5457	8487.605978911417	13
0	5460	8490.019011855542	14
0	5462	8494.940683502802	15
0	5464	8498.191171007201	16
0	5466	8499.369546722292	17
0	5468	8501.517150614441	18
0	5470	8504.329107895712	17
0	5473	8505.977378862636	18
0	5475	8512.371978594055	17
0	5478	8514.847025808035	16
0	5481	8515.657740340767	15
0	5484	8516.414426749247	14
0	5487	8520.043469313716	13
0	5490	8521.025887800378	12
0	5493	8521.38862121246	11
0	5496	8528.989225220248	12
0	5498	8529.845348330768	13
0	5500	8530.970662899866	12
0	5503	8531.097593119212	11
0	5506	8542.013138744863	10
0	5509	8542.350442212059	11
0	5511	8543.08083752672	12
0	5513	8547.465348149301	11
0	5516	8547.552640888393	12
0	5518	8547.771214280221	11
0	5521	8554.23262052806	10
0	5524	8558.41183395476	9
0	5527	8562.024816755213	10
0	5529	8568.166337821713	9
0	5532	8568.549933380261	10
0	5534	8570.03043240714	11
0	5536	8574.697646906398	12
0	5538	8577.283475260315	11
0	5541	8579.82008741306	12
0	5543	8581.065479447798	11
0	5546	8599.421143265933	12
0	5548	8606.209788028148	11
0	5551	8606.502541837345	10
0	5554	8607.265908689076	11
0	5556	8609.896061266078	12
0	5558	8612.165659322863	11
0	5561	8620.24779507492	10
0	5564	8632.267033151193	11
0	5566	8634.776090216318	12
0	5568	8635.605653818301	11
0	5571	8635.717203041368	10
0	5574	8637.702083556891	11
0	5576	8641.279363709314	12
0	5578	8641.629516496247	11
0	5581	8642.877919666374	12
0	5583	8643.910392780737	11
0	5586	8644.809649378196	10
0	5589	8645.561551847364	11
0	5591	8647.05653791274	10
0	5594	8662.224095452516	11
0	5596	8672.714630581441	12
0	5598	8675.609116017726	13
0	5600	8675.827643131364	14
0	5602	8678.429641056846	15
0	5604	8683.474250605696	14
0	5607	8685.273313488867	15
0	5609	8686.23884180802	14
0	5612	8686.574668787325	15
0	5614	8687.958501313949	16
0	5616	8688.110505069275	15
0	5619	8688.319718257627	14
0	5622	8688.332738312119	13
0	5625	8689.065035782751	12
0	5628	8689.193296997528	11
0	5631	8692.664213544713	12
0	5633	8693.108730362525	11
0	5636	8699.342299210727	10
0	5639	8702.302459401188	9
0	5642	8702.473007924171	8
0	5645	8704.929094500083	7
0	5648	8708.264041957995	6
0	5650	8708.640086928138	7
0	5653	8710.74634155605	8
0	5655	8721.719626602526	7
0	5658	8723.591144369763	8
0	5660	8723.973856711875	7
0	5663	8727.147223820597	8
0	5665	8728.750035335022	9
0	5667	8728.769079166623	8
0	5670	8731.997515960752	9
0	5672	8732.425542293376	8
0	5675	8736.139992188548	7
0	5678	8737.164131902787	6
0	5680	8737.380255421446	7
0	5683	8745.224491274385	8
0	5685	8747.548669980395	7
0	5688	8748.649907647007	6
0	5690	8748.759654636853	5
0	5692	8758.104428176459	4
0	5694	8758.362655224504	3
0	5696	8761.651035713629	4
0	5699	8766.371461179517	5
0	5702	8768.754374632788	6
0	5705	8777.818599392778	7
0	5708	8787.35115082242	8
0	5710	8790.2143491767	9
0	5712	8791.556216613059	8
0	5715	8794.20453307413	7
0	5718	8794.460101218547	8
0	5720	8795.130363676313	7
0	5723	8797.573471370559	8
0	5725	8797.733229475821	7
0	5728	8799.526582160336	8
0	5730	8803.639786873707	7
0	5733	8806.896098709583	6
0	5735	8815.588419972709	5
0	5737	8836.214317985014	4
0	5739	8841.479772925384	3
0	5741	8850.447839319975	4
0	5744	8855.209649348121	5
0	5747	8857.386995322692	6
0	5750	8863.76042376341	7
0	5753	8864.650682459484	6
0	5755	8869.117274293492	5
0	5757	8875.273310443813	6
0	5760	8880.23819859787	7
0	5763	8889.858966811477	8
0	5765	8891.051409100467	9
0	5767	8899.400781204951	10
0	5769	8900.413274821868	9
0	5772	8902.29785745408	10
0	5774	8903.334733410412	11
0	5776	8912.050559275849	12
0	5778	8912.095262456927	13
0	5780	8914.645392392964	12
0	5783	8918.097152444331	11
0	5786	8918.597437410146	10
0	5789	8919.709579588646	9
0	5792	8923.619584989959	10
0	5794	8925.103307639493	9
0	5797	8930.913225198491	8
0	5800	8934.568894819645	9
0	5802	8938.548349803444	8
0	5805	8939.153973226051	9
0	5807	8939.162061794264	8
0	5810	8939.847404289834	9
0	5812	8940.871817368341	8
0	5815	8940.924753635966	7
0	5818	8945.087806385634	8
0	5820	8947.311974753645	9
0	5822	8950.928636690497	8
0	5825	8963.92665266936	9
0	5827	8963.95045635131	8
0	5830	8971.641028487097	7
0	5833	8972.247425191637	6
0	5835	8975.216683346342	5
0	5837	8979.669002195819	4
0	5839	8985.500126997899	3
0	5841	8993.312367702085	2
0	5843	9000.172821633455	3
0	5846	9002.058125666187	4
0	5849	9009.890970266518	3
0	5851	9009.96147478182	2
0	5853	9029.136194284388	3
0	5856	9036.646752046521	4
0	5859	9036.7890044305	3
0	5861	9047.887009310198	2
0	5863	9053.48496984879	1
0	5865	9053.615692130141	0
0	5867	9056.986165023868	1
0	5870	9065.873738772473	2
0	5873	9072.876166861247	3
0	5876	9075.207644653703	4
0	5879	9080.081505946448	5
0	5882	9084.26665706326	6
0	5885	9086.715679054014	5
0	5887	9089.230852541119	6
0	5890	9094.953685175538	7
0	5893	9098.274647473274	8
0	5895	9102.44386701237	7
0	5898	9105.422143325278	8
0	5900	9107.779788393973	7
0	5903	9111.693466776498	6
0	5905	9117.295406206315	5
0	5907	9121.644170293354	4
0	5909	9122.982360620715	3
0	5911	9132.798236516034	4
0	5914	9133.86605577457	3
0	5916	9136.751181758285	4
0	5919	9150.292848772784	5
0	5922	9151.170161238926	6
0	5925	9153.261491090046	5
0	5927	9160.430727856504	4
0	5929	9163.565621921632	3
0	5931	9173.274092815962	2
0	5933	9173.3395940233	1
0	5935	9189.722256936679	2
0	5938	9193.792169164667	1
0	5940	9199.65750055731	2
0	5943	9202.520983144988	3
0	5946	9219.639928145128	2
0	5948	9226.461387961996	1
0	5950	9229.813872255563	2
0	5953	9230.526283479984	1
0	5955	9236.751033962662	2
0	5958	9253.407981493943	1
0	5960	9258.804643555459	2
0	5963	9267.971982080856	3
0	5966	9276.748515486381	4
0	5969	9280.619767246405	5
0	5972	9286.447443005377	6
0	5975	9293.467426942029	7
0	5978	9297.172149204643	6
0	5980	9302.852443670728	5
0	5982	9308.746630702938	4
0	5984	9313.850362965848	3
0	5986	9314.107061057556	4
0	5989	9314.546507395786	3
0	5991	9315.857457220325	4
0	5994	9315.926939902843	3
0	5996	9319.41085180675	2
0	5998	9322.31480728335	3
0	6001	9324.626671865361	2
0	6003	9325.328291695546	3
0	6006	9327.588127170953	4
0	6009	9328.747841660839	5
0	6012	9330.56195503825	6
0	6015	9333.880401244855	5
0	6017	9338.45132330696	4
0	6019	9338.797153531725	5
0	6022	9343.028225396899	4
0	6024	9365.67594757415	5
0	6027	9368.929390122322	6
0	6030	9370.285705395174	5
0	6032	9375.820087327261	6
0	6035	9377.892952095159	5
0	6037	9378.464499421005	4
0	6039	9380.244891144312	5
0	6042	9383.372929416914	6
0	6045	9387.2045259643	7
0	6048	9390.22958921109	8
0	6050	9390.663125647901	9
0	6052	9395.860518777261	10
0	6054	9402.890759609678	9
0	6057	9413.956199494218	10
0	6059	9417.812358874604	9
0	6062	9419.074617010849	10
0	6064	9420.241912926021	9
0	6067	9429.252713426111	8
0	6070	9429.474806708732	9
0	6072	9437.266033628635	8
0	6075	9444.616500423962	9
0	6077	9446.020643358073	8
0	6080	9447.749390926722	9
0	6082	9450.621728037024	10
0	6084	9454.292444413518	9
0	6087	9456.187409796445	8
0	6090	9468.939025142233	9
0	6092	9470.242987069336	8
0	6095	9480.714706792515	7
0	6098	9482.176374031342	8
0	6100	9491.183170341808	9
0	6102	9491.514310449117	8
0	6105	9496.744226005583	7
0	6108	9498.229354645099	6
0	6110	9499.718349527186	5
0	6112	9505.321285779826	6
0	6115	9507.654346055325	5
0	6117	9512.041431244662	4
0	6119	9519.877521593641	3
0	6121	9541.163018479696	2
0	6123	9543.625505057785	3
0	6126	9551.420971736009	4
0	6129	9556.398202470155	5
0	6132	9557.620497584689	4
0	6134	9559.461543632288	5
0	6137	9560.390290220511	6
0	6140	9563.427630744825	5
0	6142	9568.083976779768	4
0	6144	9577.300201709528	5
0	6147	9578.337413791036	6
0	6150	9589.265466452533	7
0	6153	9600.243702137437	8
0	6155	9601.308755142975	9
0	6157	9602.976365804483	8
0	6160	9604.176136826322	7
0	6163	9605.501242845718	6
0	6165	9605.80564090855	5
0	6167	9608.224941890134	6
0	6170	9615.719319794367	5
0	6172	9623.241272877068	4
0	6174	9628.67730023164	3
0	6176	9628.797135927102	2
0	6178	9631.256894143459	1
0	6180	9639.226340402054	2
0	6183	9641.181374852278	3
0	6186	9641.862398404717	4
0	6189	9648.207834181071	5
0	6192	9651.758346657796	6
0	6195	9657.795189716924	7
0	6198	9661.017679772116	6
0	6200	9661.711446821698	5
0	6202	9675.285261273408	6
0	6205	9681.669110629064	5
0	6207	9684.924474761434	4
0	6209	9685.96907384013	3
0	6211	9689.450645242975	2
0	6213	9690.888095797078	3
0	6216	9698.714302187711	4
0	6219	9699.150595735257	5
0	6222	9705.414594912751	4
0	6224	9709.437460773787	3
0	6226	9714.400051532242	2
0	6228	9719.349849444884	1
0	6230	9719.603121722638	2
0	6233	9720.562867239346	3
0	6236	9731.011556786559	2
0	6238	9734.55731798205	3
0	6241	9739.233110995332	4
0	6244	9743.116776475259	3
0	6246	9744.838615857076	4
0	6249	9746.039778393066	5
0	6252	9747.238450715602	4
0	6254	9751.60427565552	5
0	6257	9758.981910204525	4
0	6259	9767.073734973848	3
0	6261	9776.869156249741	2
0	6263	9787.49800429467	3
0	6266	9791.509649368881	4
0	6269	9793.27734261393	5
0	6272	9794.60975467425	6
0	6275	9795.45271190786	5
0	6277	9797.699486408009	4
0	6279	9798.784113526178	3
0	6281	9799.915304115811	2
0	6283	9802.342704206447	3
0	6286	9802.655569239783	4
0	6289	9807.346531174433	5
0	6292	9809.090282053335	4
0	6294	9811.494685598979	5
0	6297	9823.668826099261	6
0	6300	9825.929612103455	7
0	6303	9826.362132907318	8
0	6305	9827.293794010285	9
0	6307	9829.071076936167	8
0	6310	9830.250600725899	7
0	6313	9830.430968333775	8
0	6315	9835.461039564939	9
0	6317	9835.591636022026	8
0	6320	9840.536634271692	9
0	6322	9842.384189698283	10
0	6324	9843.349191631152	11
0	6326	9845.09792925582	12
0	6328	9846.281294423536	11
0	6331	9848.331357888371	10
0	6334	9852.59525291694	9
0	6337	9853.297344541219	10
0	6339	9854.978780989276	9
0	6342	9859.222746045217	8
0	6345	9863.392801819322	9
0	6347	9867.975175917614	8
0	6350	9869.505044966448	9
0	6352	9872.841086578524	8
0	6355	9874.486681482408	7
0	6358	9874.649981115802	6
0	6360	9874.79232110025	7
0	6363	9876.948319873028	6
0	6365	9877.839345226238	5
0	6367	9888.819185203297	6
0	6370	9890.328749533698	7
0	6373	9890.838362631226	6
0	6375	9895.000007938358	7
0	6378	9897.569763952319	8
0	6380	9897.640310199274	7
0	6383	9900.366459760133	8
0	6385	9903.494029327104	7
0	6388	9913.212828484237	6
0	6390	9917.433540898869	5
0	6392	9919.093191480492	6
0	6395	9922.130308960256	7
0	6398	9934.360358316953	6
0	6400	9942.306009956066	5
0	6402	9943.215565525146	4
0	6404	9946.532784658009	5
0	6407	9948.682620773796	6
0	6410	9952.326216708828	5
0	6412	9956.981229839817	6
0	6415	9957.430353058373	5
0	6417	9958.893974974899	4
0	6419	9961.207519422639	3
0	6421	9966.578967497992	2
0	6423	9974.482458598033	1
0	6425	9978.60397246776	2
0	6428	9981.475041307653	3
0	6431	9984.873405239329	2
0	6433	9988.953907886202	1
0	6435	9994.299214546928	2
0	6438	9997.442216874175	1
0	6440	10003.713708870318	2
0	6443	10007.079861143786	3
0	6446	10008.180570708967	2
0	6448	10009.079739519427	1
0	6450	10016.973725031966	2
0	6453	10021.754004968949	3
0	6456	10031.523036748738	4
0	6459	10032.375793621212	5
0	6462	10034.786771593862	6
0	6465	10035.034459288931	5
0	6467	10038.521465537278	4
0	6469	10041.907461198521	5
0	6472	10046.437820109165	4
0	6474	10047.987929350651	3
0	6476	10052.131967310097	2
0	6478	10055.165709752769	3
0	6481	10065.608041077207	4
0	6484	10065.741701619172	5
0	6487	10067.811378317584	6
0	6490	10069.895525864633	7
0	6493	10074.562916309983	8
0	6495	10074.765816945804	9
0	6497	10076.541900543643	8
0	6500	10076.960488989299	7
0	6503	10083.753507266482	8
0	6505	10088.795524036748	7
0	6508	10089.872840333441	6
0	6510	10095.12274030855	7
0	6513	10099.799142191229	8
0	6515	10102.18957251848	7
0	6518	10110.997635727838	8
0	6520	10116.907295259807	7
0	6523	10117.395399982242	8
0	6525	10118.080679232576	7
0	6528	10118.210196504804	6
0	6530	10119.454418945865	7
0	6533	10121.18822505591	8
0	6535	10125.358464357114	7
0	6538	10126.87302482059	8
0	6540	10132.640211525559	7
0	6543	10132.940102727381	6
0	6545	10139.550916272682	7
0	6548	10143.454275953977	6
0	6550	10147.332923360207	7
0	6553	10148.261713013183	8
0	6555	10148.336941328819	7
0	6558	10148.513086130069	6
0	6560	10148.654644142209	7
0	6563	10153.744465895124	8
0	6565	10153.822601400013	9
0	6567	10156.575109796285	10
0	6569	10156.591624761578	11
0	6571	10157.482562873864	12
0	6573	10158.501733714867	13
0	6575	10162.555208040269	12
0	6578	10173.888537848619	11
0	6581	10173.979919647227	12
0	6583	10179.919561158983	11
0	6586	10181.170978269677	10
0	6589	10186.436579538197	9
0	6592	10189.312740447331	8
0	6595	10200.789793879633	7
0	6598	10201.552619773256	8
0	6600	10203.087132590683	7
0	6603	10203.339731845519	8
0	6605	10205.689999537282	7
0	6608	10207.665783629582	8
0	6610	10210.292286643988	7
0	6613	10212.733765097398	8
0	6615	10221.012934341624	9
0	6617	10221.733618741751	8
0	6620	10228.60259701143	9
0	6622	10235.068154913686	8
0	6625	10235.249299379214	7
0	6628	10239.989149957792	6
0	6630	10247.58367291239	5
0	6632	10256.99971251278	6
0	6635	10259.513149771084	7
0	6638	10270.062056804312	8
0	6640	10275.288295422624	9
0	6642	10278.822092938657	8
0	6645	10284.357877094363	9
0	6647	10290.406042227612	10
0	6649	10294.712010562064	11
0	6651	10298.908753056763	10
0	6654	10299.419668549407	11
0	6656	10301.075190376597	10
0	6659	10307.246953665292	9
0	6662	10307.856194111392	8
0	6665	10308.220059380651	7
0	6668	10308.706848274941	6
0	6670	10308.844140102639	5
0	6672	10316.89341182604	6
0	6675	10320.503289578778	7
0	6678	10321.3846699108	6
0	6680	10322.200593541806	5
0	6682	10322.553801444778	4
0	6684	10324.418475016587	5
0	6687	10326.784419260686	6
0	6690	10341.193590120395	7
0	6693	10344.425744573077	6
0	6695	10348.909139261546	5
0	6697	10360.124043034862	6
0	6700	10380.182861686479	5
0	6702	10381.455774902122	4
0	6704	10382.683997847486	3
0	6706	10382.874272794251	2
0	6708	10390.543662301964	1
0	6710	10396.830305903953	2
0	6713	10402.528621364608	3
0	6716	10414.873114680263	4
0	6719	10419.852560014673	3
0	6721	10424.540762683636	4
0	6724	10424.796377698189	5
0	6727	10429.397121928148	4
0	6729	10430.905185246578	5
0	6732	10431.853362387827	4
0	6734	10434.868932588993	5
0	6737	10437.564609019303	6
0	6740	10443.130433673292	7
0	6743	10446.462759060112	6
0	6745	10448.34102211525	7
0	6748	10449.488219176639	6
0	6750	10459.24929624398	5
0	6752	10460.239523538071	4
0	6754	10463.470815513945	3
0	6756	10466.668654439708	4
0	6759	10467.899091333281	3
0	6761	10480.531172083987	4
0	6764	10481.025103326746	5
0	6767	10481.262398877942	4
0	6769	10497.724437475335	5
0	6772	10501.379711771449	4
0	6774	10503.020573389559	5
0	6777	10509.451243464548	4
0	6779	10514.192429691487	3
0	6781	10521.289225222184	2
0	6783	10525.634623317655	3
0	6786	10527.037997768418	2
0	6788	10528.601555959541	1
0	6790	10534.096209309012	2
0	6793	10536.042124232218	3
0	6796	10550.569557280131	4
0	6799	10553.957150551816	5
0	6802	10558.373527272859	6
0	6805	10559.386635777301	7
0	6808	10559.878499442228	6
0	6810	10563.556273972443	7
0	6813	10568.429499297025	6
0	6815	10569.385083078164	5
0	6817	10572.041861471748	4
0	6819	10574.028039928714	3
0	6821	10574.791339378764	2
0	6823	10599.111061605349	3
0	6826	10601.184276068948	4
0	6829	10609.160192597518	5
0	6832	10614.123514759558	6
0	6835	10614.760437777089	5
0	6837	10623.886361028222	6
0	6840	10624.258926903929	5
0	6842	10627.2272530972	4
0	6844	10639.527370023565	5
0	6847	10641.56748937471	4
0	6849	10643.092928171016	3
0	6851	10644.034685359082	4
0	6854	10651.761416039469	3
0	6856	10654.178472797393	4
0	6859	10655.316056231094	3
0	6861	10656.411431307976	4
0	6864	10661.09451952112	3
0	6866	10667.417960290898	4
0	6869	10671.336073672766	5
0	6872	10675.469435548155	4
0	6874	10676.900752752771	5
0	6877	10679.6259097146	6
0	6880	10688.266042063493	7
0	6883	10694.347247143342	8
0	6885	10695.215880669488	7
0	6888	10695.639149721518	8
0	6890	10697.501597067688	7
0	6893	10701.767632762677	6
0	6895	10704.726719874455	5
0	6897	10709.191317035734	6
0	6900	10713.450028517625	5
0	6902	10715.316297014237	6
0	6905	10724.131364463616	5
0	6907	10729.576328290672	6
0	6910	10732.697414966357	5
0	6912	10734.744400347045	4
0	6914	10739.028421599037	5
0	6917	10741.725867902812	6
0	6920	10742.327958233725	7
0	6923	10743.892010961465	8
0	6925	10749.440356845081	9
0	6927	10752.825267067439	8
0	6930	10755.573110290425	7
0	6933	10756.306769248842	6
0	6935	10759.713895784287	7
0	6938	10759.964685819198	6
0	6940	10760.036020669437	7
0	6943	10763.493909290051	6
0	6945	10764.352929329686	7
0	6948	10766.271603954647	8
0	6950	10767.878273981692	9
0	6952	10771.561768420407	10
0	6954	10774.70784573164	9
0	6957	10775.813559561266	8
0	6960	10777.430268212995	7
0	6963	10778.979508834982	8
0	6965	10780.807628124988	7
0	6968	10788.529699342234	6
0	6970	10794.029822580819	7
0	6973	10794.984916331063	8
0	6975	10797.45129095975	7
0	6978	10798.095669919939	6
0	6980	10808.793473124385	5
0	6982	10811.664157158229	6
0	6985	10812.46729666806	7
0	6988	10812.471045313032	8
0	6990	10812.568040526154	9
0	6992	10816.788889977728	10
0	6994	10818.645220632628	11
0	6996	10824.312209851549	10
0	6999	10827.461040273905	9
0	7002	10830.258699467765	8
0	7005	10831.586140894539	7
0	7008	10832.283692286316	6
0	7010	10832.558416308204	5
0	7012	10836.262115653238	6
0	7015	10841.478284241315	7
0	7018	10848.517333432238	8
0	7020	10849.611619675374	7
0	7023	10849.934186984197	8
0	7025	10855.222368683946	7
0	7028	10855.551059464614	6
0	7030	10857.044219341301	5
0	7032	10860.925880730553	6
0	7035	10861.495164365842	7
0	7038	10868.586131714075	8
0	7040	10871.622844114806	7
0	7043	10872.387072190715	6
0	7045	10874.012381286712	7
0	7048	10877.503605835276	6
0	7050	10878.474804248726	7
0	7053	10878.747509049466	6
0	7055	10882.105891157422	5
0	7057	10895.455786693426	4
0	7059	10896.498846766325	3
0	7061	10897.151163660873	4
0	7064	10903.246310955027	5
0	7067	10903.338851229191	6
0	7070	10903.994838585873	5
0	7072	10906.361832911472	4
0	7074	10908.650534688813	3
0	7076	10919.152635628758	2
0	7078	10928.426176492179	3
0	7081	10930.497152638465	4
0	7084	10936.022613703267	3
0	7086	10947.338848583246	4
0	7089	10947.896156438212	3
0	7091	10948.169796467499	2
0	7093	10957.371023557261	1
0	7095	10965.865841197995	2
0	7098	10968.686095651694	1
0	7100	10974.521319378052	2
0	7103	10982.567515850612	3
0	7106	10988.165216479396	4
0	7109	10997.118772557287	3
0	7111	11000.627657925226	2
0	7113	11002.363163729488	3
0	7116	11003.005066244563	2
0	7118	11003.171769218779	3
0	7121	11005.625163320332	2
0	7123	11018.501244482818	1
0	7125	11022.374187639242	2
0	7128	11029.32013431213	1
0	7130	11042.301392093579	2
0	7133	11044.276240053753	3
0	7136	11045.550217442972	4
0	7139	11050.638707898261	3
0	7141	11056.312500377081	4
0	7144	11057.87107984872	5
0	7147	11060.290916623401	6
0	7150	11061.119383550697	7
0	7153	11070.093795002913	6
0	7155	11071.156286138685	5
0	7157	11080.064725328799	4
0	7159	11083.420160995732	5
0	7162	11085.644844467716	6
0	7165	11085.87743654325	5
0	7167	11102.239235544755	4
0	7169	11110.845152586288	5
0	7172	11111.011384578357	6
0	7175	11112.408234783095	7
0	7178	11113.256394856586	8
0	7180	11125.148651361343	7
0	7183	11126.618421184771	6
0	7185	11126.637720835191	7
0	7188	11133.662269581865	8
0	7190	11133.827842514744	7
0	7193	11134.048481268303	8
0	7195	11135.824180032382	9
0	7197	11143.142516365236	10
0	7199	11149.033826011808	9
0	7202	11150.871691201077	10
0	7204	11151.744678624232	9
0	7207	11152.024448907365	8
0	7210	11153.411564734758	7
0	7213	11156.13283349533	8
0	7215	11157.050458602669	9
0	7217	11157.323647458135	8
0	7220	11161.132329468485	7
0	7223	11162.204658002575	6
0	7225	11164.308949263557	5
0	7227	11164.372373056458	6
0	7230	11164.683468487709	5
0	7232	11167.721880114428	4
0	7234	11170.797835517994	5
0	7237	11174.05228110039	4
0	7239	11182.212053345336	5
0	7242	11182.628777812327	6
0	7245	11187.060850223452	5
0	7247	11188.894479949339	4
0	7249	11197.924814163238	3
0	7251	11198.952130976615	4
0	7254	11199.558832535899	5
0	7257	11205.152499099958	6
0	7260	11217.850601968148	5
0	7262	11224.625370751705	6
0	7265	11225.237490884496	7
0	7268	11234.264846962998	8
0	7270	11238.235464639482	7
0	7273	11241.590449263211	6
0	7275	11247.85953342379	5
0	7277	11248.216012226651	4
0	7279	11250.608399362524	3
0	7281	11253.87018621006	4
0	7284	11255.429166432339	5
0	7287	11255.93082626929	6
0	7290	11262.053067017049	5
0	7292	11266.455819565288	4
0	7294	11276.713533324003	5
0	7297	11286.843163971729	4
0	7299	11289.370889162044	5
0	7302	11293.096734774662	4
0	7304	11298.80440114484	5
0	7307	11299.838337843883	6
0	7310	11300.401780311023	5
0	7312	11304.406557417321	6
0	7315	11305.169527169021	5
0	7317	11306.955906002954	4
0	7319	11311.123275570529	3
0	7321	11311.67573224108	2
0	7323	11316.694615659546	1
0	7325	11323.040612030939	2
0	7328	11329.858587498036	3
0	7331	11337.909141341715	4
0	7334	11349.32652310744	5
0	7337	11350.060096335671	4
0	7339	11352.297061128974	5
0	7342	11368.646479461188	4
0	7344	11371.601118971719	5
0	7347	11383.710298170982	4
0	7349	11387.629529906094	5
0	7352	11391.624358996165	4
0	7354	11396.971558857325	5
0	7357	11398.562977823759	6
0	7360	11400.479565696986	7
0	7363	11402.421931279042	8
0	7365	11402.54169148155	9
0	7367	11405.69659740189	10
0	7369	11406.883603460704	9
0	7372	11410.189443500434	10
0	7374	11410.963342741554	9
0	7377	11413.682414985327	8
0	7380	11414.462675910427	9
0	7382	11417.857846701194	10
0	7384	11419.831926163897	11
0	7386	11420.050102318253	10
0	7389	11439.293016979577	9
0	7392	11441.701629689426	8
0	7395	11450.845296776933	7
0	7398	11451.746171512975	6
0	7400	11455.867293868145	5
0	7402	11459.849185014299	6
0	7405	11461.068552777589	5
0	7407	11461.100650990565	4
0	7409	11463.072508935272	3
0	7411	11480.026105003511	4
0	7414	11487.965031073306	5
0	7417	11492.609470494806	6
0	7420	11502.495012907233	5
0	7422	11502.816733528926	6
0	7425	11504.233171531701	5
0	7427	11506.59974222919	4
0	7429	11509.654376938169	3
0	7431	11517.024846754618	2
0	7433	11527.080211545734	3
0	7436	11527.327525702644	2
0	7438	11528.82622459392	3
0	7441	11530.425371878232	2
0	7443	11531.148030394423	1
0	7445	11531.162433194467	2
0	7448	11533.161485641927	1
0	7450	11542.137746166708	2
0	7453	11547.194955647919	3
0	7456	11549.922384368967	4
0	7459	11562.862216670869	5
0	7462	11564.408937883876	4
0	7464	11569.295232752969	3
0	7466	11575.386490753003	4
0	7469	11591.772718558633	3
0	7471	11611.712932705337	4
0	7474	11616.829171180771	3
0	7476	11620.346731045786	2
0	7478	11621.424505559934	3
0	7481	11626.008287294462	2
0	7483	11626.203451733942	3
0	7486	11628.119249078763	4
0	7489	11632.931886743702	3
0	7491	11633.198420007753	4
0	7494	11634.938307313375	5
0	7497	11641.137133155896	4
0	7499	11654.670247072581	3
0	7501	11657.535288528469	4
0	7504	11660.676428584933	5
0	7507	11663.924919521444	4
0	7509	11665.20435885339	5
0	7512	11670.361157024313	4
0	7514	11670.589276260873	3
0	7516	11671.734338005675	2
0	7518	11675.362105612086	3
0	7521	11680.007010209315	4
0	7524	11682.348869056496	3
0	7526	11682.38989697519	2
0	7528	11687.624054735487	3
0	7531	11698.803526349915	2
0	7533	11712.110200811989	3
0	7536	11718.060716019594	4
0	7539	11723.556255825776	5
0	7542	11724.496135223235	6
0	7545	11725.575664283821	7
0	7548	11727.818674970775	8
0	7550	11732.93840315992	7
0	7553	11734.766363723634	6
0	7555	11737.233532245127	5
0	7557	11748.924400716964	4
0	7559	11750.522554494479	5
0	7562	11751.852060347876	4
0	7564	11759.579092650697	5
0	7567	11765.147917644524	6
0	7570	11768.626377281221	7
0	7573	11772.205507701403	8
0	7575	11774.000891626141	9
0	7577	11774.292997934262	8
0	7580	11778.735266516505	7
0	7583	11782.170678817795	6
0	7585	11792.477604532403	7
0	7588	11796.379146958909	8
0	7590	11796.517461889486	9
0	7592	11797.872018899319	10
0	7594	11812.40140919297	9
0	7597	11813.977129617403	8
0	7600	11818.441251190057	7
0	7603	11821.466622019973	8
0	7605	11822.860954344341	9
0	7607	11823.593548383659	10
0	7609	11825.229737214992	9
0	7612	11825.51013611014	10
0	7614	11826.138151427311	11
0	7616	11834.382349252729	12
0	7618	11848.166298895425	11
0	7621	11848.275609479213	10
0	7624	11855.725171422812	9
0	7627	11857.19669214182	10
0	7629	11861.910198281111	11
0	7631	11867.110378998134	12
0	7633	11867.668194362628	13
0	7635	11868.722049861259	12
0	7638	11869.252931291997	13
0	7640	11869.415768842891	14
0	7642	11880.616472651765	13
0	7645	11888.665579509313	12
0	7648	11900.449638373028	11
0	7651	11901.05623483319	10
0	7654	11901.673340286898	11
0	7656	11903.758659359373	10
0	7659	11908.074516334402	11
0	7661	11908.343625694371	10
0	7664	11911.340862268632	11
0	7666	11914.486221021595	12
0	7668	11919.545780534509	11
0	7671	11920.540305885136	10
0	7674	11921.402996850735	9
0	7677	11937.174110236033	10
0	7679	11939.914097407661	11
0	7681	11944.836052267297	12
0	7683	11946.184107571024	11
0	7686	11949.784629177868	12
0	7688	11952.298757528722	11
0	7691	11952.354370476312	10
0	7694	11953.454712142853	11
0	7696	11958.365780976026	12
0	7698	11961.47004849111	11
0	7701	11963.027494438119	10
0	7704	11964.700309314933	9
0	7707	11965.179844123512	10
0	7709	11971.866750269562	9
0	7712	11978.779121856779	8
0	7715	11979.861883837859	7
0	7718	11981.309724854392	6
0	7720	11990.773668124636	7
0	7723	11993.025223616688	6
0	7725	12002.869776324848	5
0	7727	12010.083758307347	6
0	7730	12016.152906360991	7
0	7733	12022.203854073592	6
0	7735	12031.54312850998	5
0	7737	12033.889907624139	4
0	7739	12038.0442194931	3
0	7741	12047.483637041636	4
0	7744	12056.509999825199	3
0	7746	12058.565784254035	4
0	7749	12058.775480231754	3
0	7751	12063.030223390575	2
0	7753	12068.084422639521	3
0	7756	12070.157749252781	4
0	7759	12072.927176217412	3
0	7761	12073.832547620836	4
0	7764	12076.186370029141	3
0	7766	12090.117818872793	4
0	7769	12095.205439933991	3
0	7771	12101.30109397355	2
0	7773	12106.05478577079	3
0	7776	12110.104385067273	2
0	7778	12115.285707405014	1
0	7780	12120.847138158594	2
0	7783	12127.772215141252	1
0	7785	12128.045120472652	0
0	7787	12141.49700938122	1
0	7790	12150.121563843822	2
0	7793	12156.384789538316	3
0	7796	12158.549423822489	4
0	7799	12168.495314398832	5
0	7802	12172.305573092391	6
0	7805	12173.168866276267	5
0	7807	12187.564460857351	4
0	7809	12188.720115824797	5
0	7812	12198.505373062844	6
0	7815	12207.733672427429	7
0	7818	12211.201608133865	6
0	7820	12215.818002754404	5
0	7822	12227.27437279885	4
0	7824	12238.56424590521	3
0	7826	12245.867572950448	4
0	7829	12247.429003613431	3
0	7831	12254.276037911912	4
0	7834	12260.742758790343	5
0	7837	12261.276444516555	4
0	7839	12264.576304381054	5
0	7842	12267.200887636019	4
0	7844	12276.843151623786	5
0	7847	12278.969163698901	4
0	7849	12284.181672630845	5
0	7852	12291.567093270702	6
0	7855	12292.527134413731	5
0	7857	12292.59673565113	4
0	7859	12293.796155893854	5
0	7862	12303.250179208765	6
0	7865	12303.591132123768	5
0	7867	12304.271761270978	6
0	7870	12304.892275099298	7
0	7873	12307.285266092814	8
0	7875	12310.398536437653	7
0	7878	12310.786244590189	8
0	7880	12315.514395647625	9
0	7882	12318.642480243454	8
0	7885	12319.396815851601	7
0	7888	12319.750621072902	6
0	7890	12321.309031290462	7
0	7893	12324.688668202679	8
0	7895	12325.429215450571	7
0	7898	12329.29127902306	8
0	7900	12333.630038810512	7
0	7903	12334.63001074322	6
0	7905	12337.653857568392	5
0	7907	12337.982729840953	4
0	7909	12338.975965064897	5
0	7912	12340.458939923426	4
0	7914	12350.650429090952	5
0	7917	12351.391496177368	4
0	7919	12354.507398945414	5
0	7922	12356.201472141307	6
0	7925	12359.139316583199	5
0	7927	12361.824815907837	6
0	7930	12362.115550032848	5
0	7932	12368.945745325435	6
0	7935	12371.695316152048	7
0	7938	12371.838305069154	6
0	7940	12372.275086723623	5
0	7942	12372.465798303164	4
0	7944	12375.870862415027	3
0	7946	12377.049060532153	2
0	7948	12386.373226227289	3
0	7951	12387.119155284565	4
0	7954	12389.202211698185	5
0	7957	12399.294897264546	6
0	7960	12401.905756270241	7
0	7963	12403.351846220382	6
0	7965	12403.935716828338	7
0	7968	12405.406362178327	6
0	7970	12408.147097263611	5
0	7972	12409.216884272169	6
0	7975	12414.227395852774	7
0	7978	12415.766070299139	8
0	7980	12417.022009948402	7
0	7983	12422.976421621433	8
0	7985	12428.112636476872	9
0	7987	12431.932006142764	8
0	7990	12437.045764645076	9
0	7992	12438.170668082158	8
0	7995	12439.239994676479	9
[...]
1	7588	11796.379146958909	1
1	7590	11796.517461889486	2
1	7592	11797.872018899319	3
1	7594	11812.40140919297	2
1	7597	11813.977129617403	1
1	7600	11818.441251190057	0
1	7603	11821.466622019973	1
1	7605	11822.860954344341	2
1	7607	11823.593548383659	3
1	7609	11825.229737214992	2
1	7612	11825.51013611014	3
1	7614	11826.138151427311	4
1	7616	11834.382349252729	5
1	7618	11848.166298895425	4
1	7621	11848.275609479213	3
1	7624	11855.725171422812	2
1	7627	11857.19669214182	3
1	7629	11861.910198281111	4
1	7631	11867.110378998134	5
1	7633	11867.668194362628	6
1	7635	11868.722049861259	5
1	7638	11869.252931291997	6
1	7640	11869.415768842891	7
1	7642	11880.616472651765	6
1	7645	11888.665579509313	5
1	7648	11900.449638373028	4
1	7651	11901.05623483319	3
1	7654	11901.673340286898	4
1	7656	11903.758659359373	3
1	7659	11908.074516334402	4
1	7661	11908.343625694371	3
1	7664	11911.340862268632	4
1	7666	11914.486221021595	5
1	7668	11919.545780534509	4
1	7671	11920.540305885136	3
1	7674	11921.402996850735	2
1	7677	11937.174110236033	3
1	7679	11939.914097407661	4
1	7681	11944.836052267297	5
1	7683	11946.184107571024	4
1	7686	11949.784629177868	5
1	7688	11952.298757528722	4
1	7691	11952.354370476312	3
1	7694	11953.454712142853	4
1	7696	11958.365780976026	5
1	7698	11961.47004849111	4
1	7701	11963.027494438119	3
1	7704	11964.700309314933	2
1	7707	11965.179844123512	3
1	7709	11971.866750269562	2
1	7712	11978.779121856779	1
1	7715	11979.861883837859	0
1	7718	11981.309724854392	0
1	7720	11990.773668124636	0
1	7723	11993.025223616688	0
1	7725	12002.869776324848	0
1	7727	12010.083758307347	0
1	7730	12016.152906360991	0
1	7733	12022.203854073592	0
1	7735	12031.54312850998	0
1	7737	12033.889907624139	0
1	7739	12038.0442194931	0
1	7741	12047.483637041636	0
1	7744	12056.509999825199	0
1	7746	12058.565784254035	0
1	7749	12058.775480231754	0
1	7751	12063.030223390575	0
1	7753	12068.084422639521	0
1	7756	12070.157749252781	0
1	7759	12072.927176217412	0
1	7761	12073.832547620836	0
1	7764	12076.186370029141	0
1	7766	12090.117818872793	0
1	7769	12095.205439933991	0
1	7771	12101.30109397355	0
1	7773	12106.05478577079	0
1	7776	12110.104385067273	0
1	7778	12115.285707405014	0
1	7780	12120.847138158594	0
1	7783	12127.772215141252	0
1	7785	12128.045120472652	0
1	7787	12141.49700938122	0
1	7790	12150.121563843822	0
1	7793	12156.384789538316	0
1	7796	12158.549423822489	0
1	7799	12168.495314398832	0
1	7802	12172.305573092391	0
1	7805	12173.168866276267	0
1	7807	12187.564460857351	0
1	7809	12188.720115824797	0
1	7812	12198.505373062844	0
1	7815	12207.733672427429	0
1	7818	12211.201608133865	0
1	7820	12215.818002754404	0
1	7822	12227.27437279885	0
1	7824	12238.56424590521	0
1	7826	12245.867572950448	0
1	7829	12247.429003613431	0
1	7831	12254.276037911912	0
1	7834	12260.742758790343	0
1	7837	12261.276444516555	0
1	7839	12264.576304381054	0
1	7842	12267.200887636019	0
1	7844	12276.843151623786	0
1	7847	12278.969163698901	0
1	7849	12284.181672630845	0
1	7852	12291.567093270702	0
1	7855	12292.527134413731	0
1	7857	12292.59673565113	0
1	7859	12293.796155893854	0
1	7862	12303.250179208765	0
1	7865	12303.591132123768	0
1	7867	12304.271761270978	0
1	7870	12304.892275099298	0
1	7873	12307.285266092814	1
1	7875	12310.398536437653	0
1	7878	12310.786244590189	1
1	7880	12315.514395647625	2
1	7882	12318.642480243454	1
1	7885	12319.396815851601	0
1	7888	12319.750621072902	0
1	7890	12321.309031290462	0
1	7893	12324.688668202679	1
1	7895	12325.429215450571	0
1	7898	12329.29127902306	1
1	7900	12333.630038810512	0
1	7903	12334.63001074322	0
1	7905	12337.653857568392	0
1	7907	12337.982729840953	0
1	7909	12338.975965064897	0
1	7912	12340.458939923426	0
1	7914	12350.650429090952	0
1	7917	12351.391496177368	0
1	7919	12354.507398945414	0
1	7922	12356.201472141307	0
1	7925	12359.139316583199	0
1	7927	12361.824815907837	0
1	7930	12362.115550032848	0
1	7932	12368.945745325435	0
1	7935	12371.695316152048	0
1	7938	12371.838305069154	0
1	7940	12372.275086723623	0
1	7942	12372.465798303164	0
1	7944	12375.870862415027	0
1	7946	12377.049060532153	0
1	7948	12386.373226227289	0
1	7951	12387.119155284565	0
1	7954	12389.202211698185	0
1	7957	12399.294897264546	0
1	7960	12401.905756270241	0
1	7963	12403.351846220382	0
1	7965	12403.935716828338	0
1	7968	12405.406362178327	0
1	7970	12408.147097263611	0
1	7972	12409.216884272169	0
1	7975	12414.227395852774	0
1	7978	12415.766070299139	1
1	7980	12417.022009948402	0
1	7983	12422.976421621433	1
1	7985	12428.112636476872	2
1	7987	12431.932006142764	1
1	7990	12437.045764645076	2
1	7992	12438.170668082158	1
1	7995	12439.239994676479	2
1	7997	12439.317416919995	1
1	8000	12440.133225370372	0
1	8003	12443.525629520479	1
1	8005	12443.691256199577	0
1	8008	12448.517632456224	1
1	8010	12448.761302542464	0
1	8013	12451.135672122222	1
1	8015	12452.606360989917	0
1	8018	12455.777136695791	1
1	8020	12461.104368489388	0
1	8023	12464.415740053459	0
1	8025	12473.639982210801	0
1	8028	12479.16319616307	0
1	8030	12479.694416639589	0
1	8033	12487.963179696044	1
1	8035	12492.7196649791	0
1	8038	12493.520262623591	0
1	8040	12497.295054701024	0
1	8043	12499.575505657094	1
1	8045	12501.931866266548	0
1	8048	12503.842610947229	1
1	8050	12512.018820400479	0
1	8053	12515.533987083506	1
1	8055	12530.097530566264	2
1	8057	12530.753890563306	1
1	8060	12536.254457283588	2
1	8062	12541.270832317063	1
1	8065	12546.182299440884	2
1	8067	12550.53693073294	3
1	8069	12551.518270777099	4
1	8071	12552.337996488535	5
1	8073	12552.433924669146	4
1	8076	12554.393115185725	5
1	8078	12556.403005835204	6
1	8080	12559.512781743021	5
1	8083	12562.662468269669	4
1	8086	12566.630243643253	5
1	8088	12567.521491078705	6
1	8090	12569.155822499303	5
1	8093	12569.982959349001	6
1	8095	12570.161740433228	5
1	8098	12575.445099627874	4
1	8101	12577.927809475338	3
1	8104	12578.223220880059	2
1	8107	12579.541198136044	3
1	8109	12582.277153753518	4
1	8111	12583.16792510981	3
1	8114	12584.472944723956	2
1	8117	12586.890361391754	1
1	8120	12593.292052434681	2
1	8122	12597.272085918823	1
1	8125	12597.387114436046	2
1	8127	12601.965131248443	3
1	8129	12604.062666875391	4
1	8131	12604.509259310944	5
1	8133	12608.715734976197	4
1	8136	12609.024661908363	3
1	8139	12611.645418308217	2
1	8142	12612.433392546695	1
1	8145	12614.902597153897	0
1	8148	12615.007684827415	0
1	8150	12616.855079341682	0
1	8152	12631.635365089727	0
1	8154	12646.533219959448	0
1	8157	12648.023244865612	0
1	8160	12654.97789074962	0
1	8163	12660.203608873342	0
1	8165	12678.167575751921	0
1	8168	12684.423616223173	1
1	8170	12687.506252962177	0
1	8173	12691.154628242814	0
1	8175	12691.654733549026	0
1	8177	12699.583437295994	0
1	8179	12702.222357404623	0
1	8182	12706.461436044816	0
1	8185	12710.524876054671	0
1	8188	12711.550413986979	1
1	8190	12712.770363653029	2
1	8192	12728.483851006468	3
1	8194	12733.172161102731	4
1	8196	12735.660551446288	3
1	8199	12737.178489941825	4
1	8201	12741.516330519876	3
1	8204	12741.725040097701	4
1	8206	12744.530733440022	5
1	8208	12744.688590609382	6
1	8210	12746.071946695193	5
1	8213	12748.778718353914	4
1	8216	12753.006809217719	3
1	8219	12754.771422233074	4
1	8221	12760.566389639906	3
1	8224	12761.161906062589	2
1	8227	12764.926388769314	3
1	8229	12767.207036665316	4
1	8231	12771.990963279569	3
1	8234	12773.256422735395	2
1	8237	12775.777456992516	3
1	8239	12776.976495844136	4
1	8241	12783.099556413826	3
1	8244	12784.042912619325	4
1	8246	12785.284688966402	3
1	8249	12798.887501357076	2
1	8252	12799.788720701332	1
1	8255	12804.532772880207	2
1	8257	12807.790019341595	1
1	8260	12810.918256376526	0
1	8263	12817.69091854163	1
1	8265	12820.870305353268	0
1	8268	12823.317059432464	0
1	8270	12829.834440691391	0
1	8272	12833.86547845153	0
1	8275	12846.147755109728	0
1	8277	12847.620288563154	0
1	8280	12873.787432400046	0
1	8282	12876.140346482586	0
1	8284	12880.083976216665	0
1	8286	12882.34265075521	0
1	8288	12883.537475363807	0
1	8291	12883.695659556951	0
1	8293	12885.465358551787	0
1	8296	12894.655881646607	0
1	8298	12894.774158906673	0
1	8301	12895.356941332812	0
1	8304	12895.398787382972	0
1	8306	12898.350743393278	0
1	8309	12902.031497319368	0
1	8312	12909.823287348102	0
1	8315	12910.234570385271	0
1	8317	12915.417639374339	0
1	8319	12926.872177601062	0
1	8322	12929.944540169824	0
1	8325	12936.286840634548	0
1	8327	12937.561000720152	0
1	8329	12941.896333245834	0
1	8332	12942.880964266964	0
1	8334	12952.677790736962	0
1	8337	12955.036725887854	0
1	8340	12958.406783457906	0
1	8342	12961.786395684555	0
1	8345	12972.364002293995	0
1	8348	12976.503020939804	1
1	8350	12983.19294607746	2
1	8352	12992.766102530368	1
1	8355	12993.838638964072	0
1	8358	12993.928414554394	1
1	8360	12996.517592987435	2
1	8362	13001.38646692986	1
1	8365	13002.794109825056	0
1	8368	13004.78606739159	0
1	8370	13008.892993492163	0
1	8373	13019.095235178551	1
1	8375	13023.951576609235	2
1	8377	13026.619113839749	3
1	8379	13030.74733303556	2
1	8382	13039.006006282096	1
1	8385	13039.020141314261	0
1	8388	13040.003832533472	0
1	8390	13040.776551908338	0
1	8392	13052.943558977685	0
1	8394	13057.23313726342	0
1	8397	13060.576309572708	0
1	8400	13068.45073857223	0
1	8402	13072.766302619873	0
1	8404	13074.395629055036	0
1	8407	13074.763636374929	0
1	8409	13076.205058710244	0
1	8412	13094.32899052709	0
1	8415	13100.858038514702	0
1	8418	13101.78063239153	0
1	8420	13102.093650569993	0
1	8423	13106.852290224494	1
1	8425	13107.528177244079	0
1	8428	13113.937569069772	0
1	8430	13119.325064089964	0
1	8433	13123.138579779221	0
1	8435	13127.329204928986	0
1	8438	13127.737064990581	1
1	8440	13127.821607628805	2
1	8442	13130.058840923624	1
1	8445	13131.862464286094	0
1	8448	13133.945226549794	0
1	8450	13134.925787702371	0
1	8452	13145.850200563552	0
1	8455	13147.099652346913	0
1	8457	13149.792079803537	0
1	8459	13150.013630143198	0
1	8462	13154.425659577437	0
1	8465	13154.731856715551	0
1	8468	13159.00504257294	0
1	8470	13160.700464972507	0
1	8472	13161.782648156278	0
1	8475	13162.979012897636	0
1	8477	13163.209438348839	0
1	8479	13164.694006095275	0
1	8482	13167.932474934604	0
1	8485	13168.654204975782	0
1	8488	13172.397466733244	0
1	8490	13172.66266216916	0
1	8493	13178.97181600173	1
1	8495	13185.246530478826	2
1	8497	13197.780154174484	1
1	8500	13205.172450959763	0
1	8503	13205.279096754751	0
1	8505	13205.497140759334	0
1	8508	13206.42360313929	1
1	8510	13218.83608331006	0
1	8513	13219.754481758539	0
1	8515	13219.985540496945	0
1	8517	13220.084908776902	0
1	8519	13220.131288421233	0
1	8521	13221.836250833939	0
1	8524	13227.86276639022	0
1	8526	13229.880604078887	0
1	8528	13233.689866702151	0
1	8531	13237.966456682832	0
1	8533	13238.167537264037	0
1	8535	13239.096354599515	0
1	8538	13240.096633285391	0
1	8541	13243.045006933638	0
1	8543	13243.471646374735	0
1	8546	13244.543126188508	0
1	8548	13251.882674490128	0
1	8551	13251.900366349849	0
1	8554	13255.017802948627	0
1	8557	13259.317654333534	0
1	8559	13263.294126840736	0
1	8562	13266.969941970827	0
1	8565	13270.079132411826	0
1	8568	13272.711090988496	0
1	8570	13275.18070625755	0
1	8573	13276.841975122172	0
1	8575	13278.261282643069	0
1	8577	13279.148228159517	0
1	8580	13279.275004352153	0
1	8583	13279.590854934318	0
1	8585	13287.061814527227	0
1	8588	13288.32653258551	1
1	8590	13289.958205318842	2
1	8592	13291.154239590874	1
1	8595	13291.547157380467	0
1	8598	13291.711294408384	1
1	8600	13298.299741592795	2
1	8602	13298.720113591117	1
1	8605	13300.964595458078	0
1	8608	13303.879500204061	1
1	8610	13308.658399942218	2
1	8612	13309.774439231821	1
1	8615	13311.492372734835	2
1	8617	13315.272224538541	3
1	8619	13317.092659947787	2
1	8622	13317.659065977051	3
1	8624	13322.024713368055	2
1	8627	13329.296367916051	1
1	8630	13332.209175482527	2
1	8632	13336.983325605845	1
1	8635	13345.169576402612	0
1	8638	13346.509911028027	1
1	8640	13357.017099345091	2
1	8642	13357.369774565094	1
1	8645	13357.851555886868	2
1	8647	13359.228683451271	3
1	8649	13363.27890476837	2
1	8652	13373.676677179007	3
1	8654	13393.086285893269	4
1	8656	13395.336996590819	3
1	8659	13395.381974961858	4
1	8661	13395.397381358603	5
1	8663	13397.04984382079	6
1	8665	13398.039609941709	5
1	8668	13399.278908639292	6
1	8670	13404.534712726489	7
1	8672	13405.714092817208	8
1	8674	13406.248193625055	9
1	8676	13407.289365379212	8
1	8679	13407.447943593936	7
1	8682	13408.7202288212	6
1	8685	13409.588977999777	7
1	8687	13412.060599511907	6
1	8690	13419.913991401946	7
1	8692	13421.195239532236	8
1	8694	13425.627969809628	7
1	8697	13432.548612867178	8
1	8699	13434.643602812954	7
1	8702	13435.189694511999	8
1	8704	13438.163631395497	9
1	8706	13442.256294733204	10
1	8708	13448.800007004288	9
1	8711	13452.029342303369	10
1	8713	13457.159641224234	11
1	8715	13459.752931727743	10
1	8718	13463.443231966757	9
1	8721	13463.637516637934	10
1	8723	13466.081747936142	9
1	8726	13466.153546034825	10
1	8728	13468.618151765285	9
1	8731	13469.097234611295	8
1	8734	13469.808490226781	9
1	8736	13470.371682479451	10
1	8738	13473.535603528715	11
1	8740	13479.319180116347	10
1	8743	13479.757560820387	11
1	8745	13482.238463742853	10
1	8748	13487.843050963806	9
1	8751	13488.706599089423	8
1	8754	13496.681309457815	7
1	8757	13496.728706774842	6
1	8760	13498.015942713566	7
1	8762	13499.811230971679	6
1	8765	13506.043478915412	7
1	8767	13506.864309036508	6
1	8770	13507.756644605953	5
1	8773	13508.698961980708	4
1	8776	13514.847433072111	3
1	8779	13515.769679391292	2
1	8782	13517.186879315628	3
1	8784	13517.208007967701	2
1	8787	13521.045496169855	1
1	8790	13523.053948226528	0
1	8793	13525.722561959664	1
1	8795	13528.166611262399	0
1	8798	13530.753063805413	0
1	8800	13531.73456429779	0
1	8802	13539.895605871505	0
1	8805	13540.12839003244	0
1	8808	13540.677363248172	0
1	8810	13543.276750121011	0
1	8812	13552.068239606959	0
1	8814	13553.78553434354	0
1	8816	13574.734093337107	0
1	8819	13575.629260355005	0
1	8822	13580.95251861565	0
1	8825	13589.779833101187	0
1	8828	13590.789122775524	0
1	8830	13592.639528454387	0
1	8833	13593.505290075563	1
1	8835	13597.377926607917	0
1	8838	13600.877324461106	0
1	8840	13604.014946441335	0
1	8843	13604.566237970168	1
1	8845	13607.011957378001	2
1	8847	13611.81922486618	3
1	8849	13612.892594304818	4
1	8851	13616.07624652951	3
1	8854	13616.522380110705	4
1	8856	13622.545079301006	3
1	8859	13634.468953611853	2
1	8862	13639.218819134494	1
1	8865	13649.576801878499	2
1	8867	13650.895243531357	1
1	8870	13657.212417923564	0
1	8873	13658.527556623098	1
1	8875	13662.199420029084	0
1	8878	13662.253666103986	1
1	8880	13662.582836990739	2
1	8882	13668.660142689898	3
1	8884	13670.702499695434	4
1	8886	13673.058472422836	5
1	8888	13675.744328048878	6
1	8890	13685.054989540176	5
1	8893	13687.683800325274	6
1	8895	13689.815191588519	5
1	8898	13690.83131932797	6
1	8900	13690.917940909593	5
1	8903	13691.024329689722	6
1	8905	13691.088054343179	7
1	8907	13691.442510869662	8
1	8909	13691.913715466917	7
1	8912	13697.846283225188	8
1	8914	13699.87227220442	9
1	8916	13699.976970001719	10
1	8918	13702.067345588007	11
1	8920	13703.624862535601	10
1	8923	13704.927186974378	11
1	8925	13719.646395138046	12
1	8927	13730.311992633046	11
1	8930	13731.560370847139	10
1	8933	13732.395114802619	9
1	8936	13738.894516533873	10
1	8938	13738.956320113643	9
1	8941	13739.099014924232	8
1	8944	13742.134232697937	7
1	8947	13744.226663215011	8
1	8949	13745.604320555076	9
1	8951	13747.524834926561	8
1	8954	13752.371158944715	7
1	8957	13755.55583385538	8
1	8959	13759.442623454929	7
1	8962	13763.692724973693	8
1	8964	13777.062295884432	7
1	8967	13777.860020362691	6
1	8970	13782.340757160629	7
1	8972	13787.219149238052	8
1	8974	13788.417569684329	7
1	8977	13793.370745864449	6
1	8980	13795.794090667758	5
1	8983	13798.942500653059	4
1	8986	13799.427270340091	3
1	8989	13806.511108865146	2
1	8992	13808.103963845892	3
1	8994	13811.543726357577	2
1	8997	13828.466574044906	1
1	9000	13828.819283868168	2
1	9002	13830.147928473253	1
1	9005	13832.510935569586	2
1	9007	13837.159412909046	3
1	9009	13837.580552464918	2
1	9012	13839.105511933838	3
1	9014	13840.917209402449	4
1	9016	13845.95146351742	5
1	9018	13855.048554498921	4
1	9021	13865.647199592083	3
1	9024	13875.170156313931	2
1	9027	13889.078350644281	1
1	9030	13889.465051957194	2
1	9032	13891.257179840412	1
1	9035	13893.730197526474	0
1	9038	13893.744166188676	1
1	9040	13898.725976294752	0
1	9043	13902.554783775426	0
1	9045	13904.041362532912	0
1	9048	13909.396120983634	0
1	9050	13912.565893183416	0
1	9052	13937.132877497845	0
1	9054	13937.94451023289	0
1	9057	13939.055574181915	0
1	9060	13941.576428432736	0
1	9062	13947.637224970854	0
1	9065	13953.646936557499	0
1	9068	13962.900468777593	0
1	9070	13964.165779582496	0
1	9073	13967.090977019714	1
1	9075	13971.831477883345	0
1	9078	13974.970005089201	0
1	9080	13975.661125835187	0
1	9083	13983.007367838653	0
1	9085	13992.751646608239	0
1	9088	13993.655358743899	0
1	9090	13995.585538411625	0
1	9092	14001.054432551441	0
1	9095	14002.458355041218	0
1	9098	14002.521440310494	0
1	9100	14003.685229361307	0
1	9102	14004.474839756702	0
1	9105	14011.13246661804	0
1	9107	14012.735045586583	0
1	9110	14014.198813126269	0
1	9113	14020.412144729386	0
1	9115	14039.480212214431	0
1	9118	14049.385644319444	0
1	9120	14050.667973287851	0
1	9123	14066.30206464612	0
1	9125	14068.446932573409	0
1	9127	14069.828101001269	0
1	9130	14070.047201394522	0
1	9133	14073.346159602258	0
1	9135	14085.905594951354	0
1	9137	14088.507305171924	0
1	9140	14091.589481006385	0
1	9143	14092.09436134329	0
1	9145	14095.203889471823	0
1	9147	14099.161095919969	0
1	9149	14099.376999721451	0
1	9151	14100.30485099097	0
1	9154	14103.538805726307	0
1	9157	14103.964916913696	0
1	9159	14106.427095290502	0
1	9162	14108.350972031524	0
1	9165	14108.973827070176	0
1	9168	14109.674307345688	0
1	9170	14111.723817761639	0
1	9172	14115.555800680977	0
1	9174	14116.226907318056	0
1	9176	14124.219199646843	0
1	9179	14125.727748740396	0
1	9182	14133.209684195784	0
1	9184	14137.110748298157	0
1	9187	14137.713435293371	0
1	9189	14152.35315898574	0
1	9191	14152.413112214672	0
1	9193	14155.034656955487	0
1	9196	14158.813358635756	0
1	9199	14168.146849031566	0
1	9201	14168.658888173783	0
1	9204	14175.82305832645	0
1	9207	14176.704782272269	0
1	9210	14179.303149617939	0
1	9213	14179.753110166586	0
1	9215	14182.598504946379	0
1	9217	14188.483257751131	0
1	9219	14207.917126392484	0
1	9222	14213.438424019587	0
1	9224	14228.161245664576	0
1	9227	14232.854411221568	0
1	9229	14233.409503793057	0
1	9231	14233.866289383083	0
1	9234	14238.184609088202	0
1	9237	14239.692662223436	0
1	9240	14240.460876461756	0
1	9243	14245.333914012449	0
1	9245	14245.686201812554	0
1	9248	14249.608112321	0
1	9250	14254.251925815569	0
1	9253	14258.327634434189	1
1	9255	14260.790918003248	2
1	9257	14262.71608418535	3
1	9259	14264.731586966426	4
1	9261	14267.678606245431	3
1	9264	14272.749360796125	4
1	9266	14280.417422595597	5
1	9268	14284.475036584462	4
1	9271	14286.391390658477	5
1	9273	14286.644437000641	4
1	9276	14289.27464802875	3
1	9279	14293.053360282285	4
1	9281	14295.616297156444	5
1	9283	14298.447169245526	4
1	9286	14300.145352131137	3
1	9289	14300.72335786579	4
1	9291	14308.467138881951	3
1	9294	14309.932474401486	2
1	9297	14313.710527248246	3
1	9299	14319.747851287983	2
1	9302	14321.575907825212	3
1	9304	14322.917693948335	2
1	9307	14323.809486803711	1
1	9310	14324.800595029683	0
1	9313	14325.506843791975	0
1	9315	14327.767452747216	0
1	9318	14330.716317036202	1
1	9320	14331.80913210058	0
1	9323	14334.033601639139	1
1	9325	14334.681192188149	0
1	9328	14337.112191436854	0
1	9330	14337.782872524331	0
1	9333	14339.156900811506	1
1	9335	14351.44625475728	2
1	9337	14351.587829322487	1
1	9340	14352.183328720307	0
1	9343	14356.98275578998	1
1	9345	14358.80983050015	0
1	9348	14361.886962388697	0
1	9350	14363.66680612247	0
1	9352	14368.494297992271	0
1	9354	14373.267121204151	0
1	9357	14373.281718942681	0
1	9359	14374.604662403989	0
1	9362	14379.444734603015	0
1	9365	14380.550900807738	0
1	9367	14393.994048079423	0
1	9369	14397.651831647911	0
1	9371	14398.138880086688	0
1	9373	14399.219880328114	0

