version 2
run General-14-20191211-23:49:40-6375
attr configname General
attr datetime 20191211-23:49:40
attr experiment General
attr inifile omnetpp.ini
attr iterationvars ""
attr iterationvarsf ""
attr measurement ""
attr network Carrefour
attr processid 6375
attr repetition 14
attr replication #14
attr resultdir results
attr runnumber 14
attr seedset 14
param **.tillsNumber 7
param **.delta 0s
param **.policy 1
param **.capacity 0.3
param **.meanInterArrivalTime 8s
param **.meanItemsInACart 12
param **.interArrivalDistribution 0
param **.itemsInCartDistribution 0

vector 0 Carrefour.decider stats_numCustomers:vector ETV
attr "" ""
attr source numCustomers
vector 1 Carrefour.decider stats_numCustomersQueue:vector ETV
attr "" ""
attr source numCustomersQueue
0	646	1201.077005260083	2
0	648	1201.685111443792	3
0	651	1204.36589471349	4
0	654	1215.716720130742	5
0	657	1221.559187452178	4
0	659	1226.081001270471	5
0	662	1231.299161443659	4
0	664	1231.951874150507	5
0	667	1233.464806826764	4
0	669	1237.355437858083	5
0	672	1263.488654910784	6
0	675	1271.155450749817	5
0	677	1273.773082854303	4
0	679	1274.062904085926	3
0	681	1279.68925695947	4
0	684	1281.934083684736	3
0	686	1283.411294360877	2
0	688	1292.19058487587	3
0	691	1293.606981099244	4
0	694	1293.713515153169	3
0	696	1295.04293368887	4
0	699	1311.577791643226	3
0	701	1323.146625075716	2
0	703	1323.456799471436	3
0	706	1323.624106222567	4
0	709	1324.025074417854	5
0	712	1325.70812739196	4
0	714	1326.748184965502	3
0	716	1334.49557759319	4
0	719	1342.146292829097	3
0	721	1344.141930828184	4
0	724	1344.788333024689	3
0	726	1348.366283190488	4
0	729	1356.80943923024	5
0	732	1363.25467801074	6
0	735	1363.448737598562	5
0	737	1363.635261577393	6
0	740	1364.840609877289	5
0	742	1369.580299613391	6
0	745	1371.338502203335	7
0	748	1374.847493459858	8
0	750	1378.058565131243	9
0	752	1378.556728515312	8
0	755	1379.718658594233	9
0	757	1390.894102608685	10
0	759	1395.366547771302	9
0	762	1395.511190941583	8
0	765	1400.656436612368	7
0	768	1402.026308752119	8
0	770	1402.537307490108	7
0	773	1405.65953462817	8
0	775	1406.836753651135	7
0	778	1407.728432398728	6
0	780	1408.456533422371	5
0	782	1410.451456891898	4
0	784	1413.361362760039	3
0	786	1415.082990433324	2
0	788	1420.520055220842	3
0	791	1420.648275199008	2
0	793	1426.573370191538	3
0	796	1433.317053219938	4
0	799	1436.814945118569	5
0	802	1449.115245643435	6
0	805	1454.898722324199	7
0	808	1456.3765278993	8
0	810	1458.803761380211	9
0	812	1458.968402258414	8
0	815	1459.821289118597	9
0	817	1471.064223296821	8
0	820	1475.091563650332	9
0	822	1480.200261123108	8
0	825	1482.416340814529	9
0	827	1490.225542839251	10
0	829	1490.328155371954	11
0	831	1493.232801615227	12
0	833	1494.489072383929	13
0	835	1498.978118116405	12
0	838	1506.439345094169	13
0	840	1507.345437217077	14
0	842	1518.206804952298	13
0	845	1518.862291102664	12
0	848	1523.336452572615	11
0	851	1525.193146094987	10
0	854	1525.29315300734	9
0	857	1525.417963198429	10
0	859	1530.518490875788	11
0	861	1531.464778595728	10
0	864	1537.547349283303	9
0	867	1541.215712118858	10
0	869	1543.606618569005	9
0	872	1544.712097704268	10
0	874	1550.8416651718	9
0	877	1554.07879868049	8
0	880	1560.190805839455	9
0	882	1568.747699970474	8
0	885	1571.060262323774	7
0	888	1572.516212563181	8
0	890	1574.831178246219	7
0	893	1579.727758359614	6
0	895	1586.24017201593	7
0	898	1593.793143778396	6
0	900	1601.494482522992	5
0	902	1607.151879443081	4
0	904	1610.828684412998	5
0	907	1610.847171697734	4
0	909	1623.16824550235	3
0	911	1626.861632061613	4
0	914	1633.615228624252	5
0	917	1637.467041293001	6
0	920	1638.250219845323	5
0	922	1638.776870816187	6
0	925	1640.131374038246	5
0	927	1646.338654023005	6
0	930	1650.815040769446	7
0	933	1654.327822181201	6
0	935	1655.111110228056	7
0	938	1655.390323157213	6
0	940	1656.120582453072	5
0	942	1657.030997317971	4
0	944	1669.605050529749	3
0	946	1674.700656610905	4
0	949	1676.918654542934	5
0	952	1682.048932060033	4
0	954	1685.275916375092	3
0	956	1685.606735080197	2
0	958	1701.289230920181	3
0	961	1701.794888513987	4
0	964	1705.028084230953	5
0	967	1708.07505282277	4
0	969	1718.096949967157	3
0	971	1718.636831164773	4
0	974	1724.32940383523	5
0	977	1727.743261488404	4
0	979	1728.200693886541	5
0	982	1737.372036911202	6
0	985	1737.985572787826	5
0	987	1745.21933124215	4
0	989	1753.25917698602	3
0	991	1768.217359182604	4
0	994	1772.727389844952	5
0	997	1775.902914103872	4
0	999	1776.575874449259	5
0	1002	1779.460411715282	4
0	1004	1779.725028655466	5
0	1007	1787.682283906015	6
0	1010	1791.390649084321	5
0	1012	1792.436474324292	4
0	1014	1803.230461028141	3
0	1016	1805.511836637058	4
0	1019	1810.198411406822	5
0	1022	1811.832018919938	6
0	1025	1812.038847482175	7
0	1028	1815.810155379665	8
0	1030	1817.934548583553	9
0	1032	1821.521955277793	10
0	1034	1832.622423366674	9
0	1037	1833.228342600629	8
0	1040	1833.607694805704	9
0	1042	1835.776314365507	10
0	1044	1837.266654451488	11
0	1046	1838.160915601754	12
0	1048	1842.444200034951	13
0	1050	1844.091231406331	12
0	1053	1844.699500247369	13
0	1055	1851.92649746939	14
0	1057	1855.14070170727	13
0	1060	1855.328846774322	12
0	1063	1861.783173716962	11
0	1066	1867.206216001137	10
0	1069	1872.736747344983	11
0	1071	1873.538583016687	10
0	1074	1876.181568203508	9
0	1077	1883.148130737126	8
0	1080	1886.888406861798	7
0	1083	1892.078028608202	8
0	1085	1893.136795289742	7
0	1088	1895.63536369579	8
0	1090	1900.716648376917	7
0	1093	1901.283465499914	8
0	1095	1909.996131702963	7
0	1098	1913.113293028751	6
0	1100	1914.499116189471	7
0	1103	1919.118162183917	8
0	1105	1920.911914714324	7
0	1108	1924.740725261111	6
0	1110	1929.530505088943	7
0	1113	1929.793105441801	8
0	1115	1933.414037825874	7
0	1118	1933.48654999934	6
0	1120	1935.004245889225	5
0	1122	1935.581008462126	4
0	1124	1936.421480228511	3
0	1126	1949.924033524807	4
0	1129	1951.998441088058	5
0	1132	1962.309288459781	6
0	1135	1963.552881989887	5
0	1137	1963.912564095087	6
0	1140	1965.947537112604	5
0	1142	1972.967361060284	6
0	1145	1975.189808751924	7
0	1148	1977.26104947155	6
0	1150	1981.328219039779	7
0	1153	1984.402951575374	6
0	1155	1990.547938666227	5
0	1157	1994.381573903107	4
0	1159	1994.591179467443	5
0	1162	1997.079461496234	4
0	1164	2012.745295100522	5
0	1167	2018.605198429896	6
0	1170	2022.367181873636	7
0	1173	2026.045929561739	8
0	1175	2026.694720037365	9
0	1177	2031.659154624056	10
0	1179	2032.321367678509	11
0	1181	2039.749964907523	12
0	1183	2040.306420124812	11
0	1186	2044.299421636244	12
0	1188	2050.819746389857	13
0	1190	2053.716735334473	12
0	1193	2054.835876954224	11
0	1196	2055.293055126641	10
0	1199	2058.40183048315	11
0	1201	2058.670738003826	12
0	1203	2065.045532618193	11
0	1206	2065.901837707378	10
0	1209	2067.355729050926	11
0	1211	2071.429280403499	12
0	1213	2079.423570146189	11
0	1216	2079.751030082462	10
0	1219	2079.840037827358	11
0	1221	2080.459959976914	10
0	1224	2080.536022339289	11
0	1226	2082.228780617271	12
0	1228	2084.061844265318	11
0	1231	2085.8834912495	10
0	1234	2087.509054399762	11
0	1236	2091.118302165619	12
0	1238	2098.213267399331	11
0	1241	2102.435690888847	10
0	1244	2106.651763261034	11
0	1246	2110.312959130083	12
0	1248	2111.031373558569	11
0	1251	2113.621778835855	10
0	1254	2113.853706895472	9
0	1257	2125.37115363627	10
0	1259	2130.92622385888	9
0	1262	2140.453090754704	8
0	1265	2140.637766323538	7
0	1268	2143.229427675078	6
0	1270	2144.458765576402	5
0	1272	2147.775495179212	4
0	1274	2154.24104621305	5
0	1277	2157.941782299035	6
0	1280	2164.666019398426	7
0	1283	2174.79621804084	8
0	1285	2176.510386096722	7
0	1288	2184.703752452659	8
0	1290	2184.740722911824	9
0	1292	2185.706574222498	10
0	1294	2188.945883344443	9
0	1297	2193.426189276205	8
0	1300	2197.264351329341	9
0	1302	2197.688028790928	10
0	1304	2206.77387922464	9
0	1307	2208.673477273382	10
0	1309	2219.263235664949	9
0	1312	2222.179917330116	10
0	1314	2223.294745244125	9
0	1317	2224.581627784212	8
0	1320	2226.040734728227	7
0	1323	2232.970799526399	6
0	1325	2233.150746297515	5
0	1327	2237.847276390227	6
0	1330	2238.268290276907	7
0	1333	2243.15005478606	8
0	1335	2244.446308698268	9
0	1337	2249.829932655976	8
0	1340	2250.989430872051	7
0	1343	2252.605952612009	6
0	1345	2257.608496665081	5
0	1347	2268.063418799005	6
0	1350	2268.373443599837	7
0	1353	2270.669377988734	6
0	1355	2275.631780511199	5
0	1357	2276.488498030549	6
0	1360	2278.737836400864	5
0	1362	2281.119419003928	4
0	1364	2281.24014587277	5
0	1367	2281.560496449087	4
0	1369	2286.747339864569	5
0	1372	2292.335849983113	6
0	1375	2293.406145980972	5
0	1377	2294.012956075554	6
0	1380	2296.33327844456	5
0	1382	2299.720598070058	6
0	1385	2311.131399583762	7
0	1388	2311.939383873167	6
0	1390	2319.496144959733	7
0	1393	2321.335444391641	6
0	1395	2323.207574744026	7
0	1398	2326.672944176646	6
0	1400	2326.980950165431	7
0	1403	2328.85937771529	8
0	1405	2331.954990537339	7
0	1408	2335.481196945653	6
0	1410	2337.315017491288	7
0	1413	2340.430504701162	8
0	1415	2341.017690662254	7
0	1418	2342.818686156204	6
0	1420	2352.207127797485	5
0	1422	2352.569469565044	4
0	1424	2354.845769056821	5
0	1427	2356.692884613061	6
0	1430	2358.242745662449	7
0	1433	2362.462027000043	8
0	1435	2363.961574439709	9
0	1437	2364.649328577756	8
0	1440	2365.126295022909	9
0	1442	2368.273508744579	8
0	1445	2384.557862419066	9
0	1447	2389.504474980282	8
0	1450	2391.567617888519	7
0	1453	2392.508028098882	6
0	1455	2394.123040870232	5
0	1457	2395.579842859909	4
0	1459	2398.118030153382	5
0	1462	2404.817823410556	6
0	1465	2410.139019345701	5
0	1467	2412.952979260641	6
0	1470	2415.680509603973	5
0	1472	2420.087395573914	6
0	1475	2426.057547707911	5
0	1477	2429.098840315682	6
0	1480	2431.370092187705	7
0	1483	2431.438700245149	8
0	1485	2437.607283052517	7
0	1488	2441.79541858248	8
0	1490	2447.743563941139	7
0	1493	2449.574689370868	6
0	1495	2450.875928189349	5
0	1497	2451.69882285816	4
0	1499	2452.495567715295	5
0	1502	2463.279031364414	6
0	1505	2474.938613740248	7
0	1508	2481.117735655704	8
0	1510	2482.533885356594	9
0	1512	2482.750620403404	8
0	1515	2484.111266073678	9
0	1517	2502.334978272859	8
0	1520	2506.668956811732	7
0	1523	2510.000845543906	8
0	1525	2512.133648840691	7
0	1528	2515.200566722108	6
0	1530	2517.648594076647	5
0	1532	2518.935054705077	4
0	1534	2531.317928122728	3
0	1536	2540.96802466364	4
0	1539	2543.432014088379	3
0	1541	2553.75862720743	4
0	1544	2554.788476022829	5
0	1547	2557.471762902102	4
0	1549	2559.672334571687	3
0	1551	2561.807302697585	4
0	1554	2565.355823142903	5
0	1557	2565.703448703358	6
0	1560	2580.165473355441	5
0	1562	2580.868214269565	6
0	1565	2582.166268713877	5
0	1567	2584.224994608183	6
0	1570	2585.220858147771	7
0	1573	2588.887688073544	8
0	1575	2592.919737478105	7
0	1578	2593.168254169072	8
0	1580	2601.39833221917	7
0	1583	2610.512756766701	8
0	1585	2610.876891197202	7
0	1588	2611.004154970045	8
0	1590	2612.072934163888	9
0	1592	2616.856013233311	8
0	1595	2620.598126347319	9
0	1597	2622.370636653579	10
0	1599	2633.475997717467	9
0	1602	2637.263817374012	10
0	1604	2638.285165959315	9
0	1607	2641.967223495575	8
0	1610	2650.489537802394	7
0	1613	2651.889118680471	6
0	1615	2656.874603645954	5
0	1617	2662.567964370302	6
0	1620	2662.991856095711	7
0	1623	2668.835143140316	8
0	1625	2679.732286866576	7
0	1628	2695.183480937446	6
0	1630	2696.216180084215	5
0	1632	2697.615396297891	4
0	1634	2701.753017349789	5
0	1637	2703.108874908823	4
0	1639	2707.174326704957	3
0	1641	2707.225615038819	4
0	1644	2709.573529977986	5
0	1647	2711.733070950774	6
0	1650	2713.064253931945	7
0	1653	2715.611455381232	6
0	1655	2719.453657868774	5
0	1657	2721.887214002972	4
0	1659	2725.288501936682	3
0	1661	2729.12558503722	2
0	1663	2733.297638092835	3
0	1666	2733.685077091614	4
0	1669	2734.20523993349	5
0	1672	2734.946488414943	6
0	1675	2736.163706604094	7
0	1678	2736.886009534218	6
0	1680	2740.760984427215	5
0	1682	2743.096417055449	6
0	1685	2745.185243246261	7
0	1688	2747.302378118172	8
0	1690	2747.939719901698	9
0	1692	2753.791177991355	8
0	1695	2758.900145167213	7
0	1698	2763.466574222533	8
0	1700	2764.203022185212	7
0	1703	2768.398088025366	6
0	1705	2770.370442666874	5
0	1707	2778.92614939208	4
0	1709	2779.362280314731	5
0	1712	2782.574779149936	6
0	1715	2785.414144625064	5
0	1717	2789.663140269237	6
0	1720	2794.084500022202	7
0	1723	2801.743539763357	6
0	1725	2804.653628960077	5
0	1727	2808.330377045082	4
0	1729	2812.062694994728	5
0	1732	2816.016151701536	4
0	1734	2825.645123900744	3
0	1736	2830.39727714348	4
0	1739	2830.474446752993	3
0	1741	2835.899398653875	4
0	1744	2837.70389455029	5
0	1747	2847.585545104474	4
0	1749	2849.795397445719	5
0	1752	2866.757638442437	6
0	1755	2867.847301066631	7
0	1758	2869.532274034251	8
0	1760	2869.924569056318	7
0	1763	2875.505803785291	6
0	1765	2877.099141079297	7
0	1768	2878.243352324677	8
0	1770	2879.616224682997	7
0	1773	2882.634870458817	6
0	1775	2897.569988808552	7
0	1778	2900.642219872091	8
0	1780	2906.302121929108	7
0	1783	2906.328358713369	8
0	1785	2909.415426166151	7
0	1788	2909.519953053442	8
0	1790	2914.466056504756	9
0	1792	2920.124324468489	10
0	1794	2930.321148381184	11
0	1796	2932.074097941592	10
0	1799	2937.836773054061	11
0	1801	2938.16083774416	12
0	1803	2941.793561452749	11
0	1806	2945.43996588591	12
0	1808	2947.129991426711	11
0	1811	2955.637043983922	12
0	1813	2962.474607067704	13
0	1815	2965.2013128782	14
0	1817	2969.265769999634	13
0	1820	2969.786229274842	14
0	1822	2974.097145589318	13
0	1825	2975.183042695783	14
0	1827	2980.208298039042	13
0	1830	2980.618201022719	14
0	1832	2981.586168147583	13
0	1835	2986.42394665487	12
0	1838	2994.177387500172	11
0	1841	2996.450991887957	10
0	1844	2997.155663493033	11
0	1846	2999.149325441048	10
0	1849	3002.912330376203	9
0	1852	3004.145450772167	8
0	1855	3007.736791726066	7
0	1858	3011.539890989735	6
0	1860	3016.341578262542	5
0	1862	3019.785799693309	6
0	1865	3021.459642351563	7
0	1868	3027.878791060953	6
0	1870	3034.052710446097	5
0	1872	3037.432793076958	6
0	1875	3045.733084324467	7
0	1878	3052.866234377796	6
0	1880	3054.198379052389	7
0	1883	3054.741559311573	6
0	1885	3059.462471351011	7
0	1888	3060.91212162279	8
0	1890	3065.840554801606	7
0	1893	3071.18664428794	6
0	1895	3072.725708800614	5
0	1897	3073.279124260399	6
0	1900	3077.552581106787	7
0	1903	3084.131946067474	8
0	1905	3084.517774117412	9
0	1907	3085.156472836734	8
0	1910	3086.330212289472	7
0	1913	3087.217006561117	8
0	1915	3087.636772837587	7
0	1918	3089.018906452472	6
0	1920	3109.968374103273	7
0	1923	3111.586393219968	8
0	1925	3112.373636573432	7
0	1928	3123.212242335503	6
0	1930	3124.880382275649	7
0	1933	3130.562504858746	8
0	1935	3140.869882303123	7
0	1938	3142.620426111077	8
0	1940	3148.548361413974	7
0	1943	3149.170922242752	6
0	1945	3151.059603217566	7
0	1948	3151.247615293792	8
0	1950	3151.487570089489	7
0	1953	3151.664711883631	6
0	1955	3159.49439205648	5
0	1957	3159.937729144375	4
0	1959	3161.164469183757	5
0	1962	3161.463802931455	4
0	1964	3162.546486067339	3
0	1966	3167.420190462664	4
0	1969	3171.299114084468	5
0	1972	3171.902849388507	4
0	1974	3172.112001933696	5
0	1977	3174.63006846559	6
0	1980	3175.825364618351	5
0	1982	3176.372833533578	4
0	1984	3179.801105798635	5
0	1987	3179.888058657427	4
0	1989	3182.394758415976	5
0	1992	3184.270693197707	4
0	1994	3184.460791993202	3
0	1996	3203.769517157815	4
0	1999	3208.719643533007	3
0	2001	3218.408925427335	2
0	2003	3221.702624233744	3
0	2006	3223.013069958936	4
0	2009	3239.419141394094	3
0	2011	3240.499673508618	4
0	2014	3270.903665315663	5
0	2017	3271.383492907135	6
0	2020	3281.089281848186	5
0	2022	3284.136402176165	4
0	2024	3291.215575024723	3
0	2026	3291.725517769978	4
0	2029	3298.97381368623	5
0	2032	3303.535221851445	6
0	2035	3309.391008366566	7
0	2038	3322.92432138522	8
0	2040	3323.847041515457	7
0	2043	3324.485422334244	8
0	2045	3326.877082200304	7
0	2048	3327.641743257222	6
0	2050	3333.610609013802	5
0	2052	3338.565445584906	6
0	2055	3342.253685586396	5
0	2057	3343.550283395489	6
0	2060	3351.822828184643	7
0	2063	3351.945057143008	6
0	2065	3353.500371043051	7
0	2068	3359.329377005268	8
0	2070	3368.340897106217	9
0	2072	3371.012323910018	8
0	2075	3372.498692012164	9
0	2077	3373.898799762874	8
0	2080	3373.980484392208	9
0	2082	3374.081377942247	10
0	2084	3375.350174287566	9
0	2087	3379.60895276152	10
0	2089	3383.137169755803	9
0	2092	3396.880743755189	8
0	2095	3397.686542181311	9
0	2097	3399.507784455245	8
0	2100	3403.369862840562	9
0	2102	3403.622351372373	8
0	2105	3408.22349209395	9
0	2107	3410.902286285446	8
0	2110	3412.818284408914	9
0	2112	3414.14948814215	8
0	2115	3423.326679485242	7
0	2118	3425.101570773668	6
0	2120	3425.165416417764	7
0	2123	3425.797530603926	6
0	2125	3430.509816387027	7
0	2128	3435.849875073984	6
0	2130	3438.295222986756	5
0	2132	3451.497251201148	4
0	2134	3462.938772064993	5
0	2137	3468.804646348524	4
0	2139	3482.07993267463	3
0	2141	3483.979382269037	4
0	2144	3484.893823216293	5
0	2147	3489.206180132138	4
0	2149	3489.897116153177	3
0	2151	3498.69213814681	2
0	2153	3502.867591506953	1
0	2155	3503.631962313037	2
0	2158	3503.848888086228	1
0	2160	3505.72565162194	2
0	2163	3507.780863727263	3
0	2166	3508.374164203824	4
0	2169	3508.934769219871	3
0	2171	3513.313603089726	4
0	2174	3525.2841624148	5
0	2177	3526.370853146712	4
0	2179	3527.278443239053	3
0	2181	3531.209219910588	2
0	2183	3534.533212879807	3
0	2186	3545.506278524852	4
0	2189	3551.375407809573	3
0	2191	3559.914128817673	4
0	2194	3560.770704681154	5
0	2197	3580.963242206396	4
0	2199	3581.580752019487	5
0	2202	3585.222586691946	6
0	2205	3585.424433310644	7
0	2208	3586.560740616642	6
0	2210	3594.787450619446	5
0	2212	3597.71850698366	6
0	2215	3599.323417162471	5
0	2217	3606.373271339109	6
0	2220	3608.596140943303	5
0	2222	3610.161153393044	6
0	2225	3612.454978023301	7
0	2228	3616.341362457587	8
0	2230	3617.364444004973	7
0	2233	3618.384097921903	6
0	2235	3621.642981029628	5
0	2237	3622.138051761772	4
0	2239	3622.256526337811	3
0	2241	3624.331864167918	2
0	2243	3627.230076487341	1
0	2245	3650.522783136956	2
0	2248	3651.523860354928	3
0	2251	3654.282857035863	2
0	2253	3667.032288912845	1
0	2255	3674.505414440048	2
0	2258	3677.500081693706	3
0	2261	3680.472800389501	2
0	2263	3686.67901648755	3
0	2266	3688.086207593152	2
0	2268	3689.724783598497	1
0	2270	3708.436680784128	2
0	2273	3713.347159936263	3
0	2276	3720.850899975914	2
0	2278	3736.954182436713	3
0	2281	3743.281095036825	2
0	2283	3749.133030484726	3
0	2286	3757.667807569742	4
0	2289	3757.906546644352	3
0	2291	3762.235299387709	4
0	2294	3762.374724004083	3
0	2296	3764.613870987898	4
0	2299	3765.432260930461	3
0	2301	3765.745448742469	4
0	2304	3766.698667300953	3
0	2306	3772.236185760493	2
0	2308	3787.803388614307	3
0	2311	3787.898053038175	4
0	2314	3790.018147878112	5
0	2317	3791.133914524552	4
0	2319	3793.152465400396	3
0	2321	3800.033023584828	2
0	2323	3800.866602839719	3
0	2326	3801.129058666939	2
0	2328	3803.36829642573	1
0	2330	3808.49203400786	2
0	2333	3808.881698409366	1
0	2335	3838.759782371983	2
0	2338	3842.457067479753	3
0	2341	3844.251178958548	4
0	2344	3848.196373361088	3
0	2346	3868.438619596851	4
0	2349	3894.26519696243	5
0	2352	3895.277236871207	4
0	2354	3897.037942452881	3
0	2356	3902.371421283246	4
0	2359	3905.849865617751	3
0	2361	3906.438710201932	2
0	2363	3907.278753869237	3
0	2366	3913.630718566146	2
0	2368	3914.587368498825	3
0	2371	3919.316180571045	4
0	2374	3920.653426267044	5
0	2377	3925.498832853872	4
0	2379	3925.996118281023	5
0	2382	3928.679174667834	6
0	2385	3929.938760235897	5
0	2387	3930.335677447524	6
0	2390	3934.255562093963	5
0	2392	3935.122255910258	6
0	2395	3941.083287967495	7
0	2398	3943.788685542795	8
0	2400	3949.861725913963	9
0	2402	3950.298639482343	8
0	2405	3954.415717839116	9
0	2407	3954.937914196272	8
0	2410	3957.041347553107	7
0	2413	3965.357403590664	6
0	2415	3971.504495512461	5
0	2417	3975.543550070026	6
0	2420	3979.372587347706	5
0	2422	3996.693802156851	6
0	2425	4006.470334073898	5
0	2427	4007.707964583385	4
0	2429	4014.575777222156	5
0	2432	4015.726488689769	4
0	2434	4028.120779272931	5
0	2437	4030.952615700641	6
0	2440	4031.238221991278	5
0	2442	4037.183512422198	6
0	2445	4038.723044098283	5
0	2447	4039.926712162827	6
0	2450	4046.165679770512	7
0	2453	4047.214270687674	6
0	2455	4047.263812675503	5
0	2457	4047.566339371157	6
0	2460	4058.40877885956	5
0	2462	4058.418974439192	6
0	2465	4061.602304999552	7
0	2468	4063.968355282988	8
0	2470	4064.877650149769	9
0	2472	4065.861701626479	10
0	2474	4067.571859216985	9
0	2477	4068.119566291302	8
0	2480	4075.43715527934	9
0	2482	4079.603898611804	8
0	2485	4079.886346772956	9
0	2487	4081.650063140634	8
0	2490	4082.296419197371	7
0	2493	4083.978837901384	6
0	2495	4086.206621616706	7
0	2498	4091.333760125947	6
0	2500	4093.468728654178	5
0	2502	4096.727415497223	6
0	2505	4098.867739098873	7
0	2508	4099.670174623987	6
0	2510	4101.900903404876	7
0	2513	4110.894615192709	6
0	2515	4111.185653096101	5
0	2517	4123.405397828229	6
0	2520	4125.73946441529	7
0	2523	4135.245570507888	6
0	2525	4135.295977536772	7
0	2528	4137.260317780472	6
0	2530	4160.347205557459	5
0	2532	4165.458074042293	4
0	2534	4173.14126714319	3
0	2536	4179.08085703955	4
0	2539	4180.866466856591	3
0	2541	4182.015844345847	2
0	2543	4183.470884922474	3
0	2546	4189.2380665054	4
0	2549	4202.495126213235	5
0	2552	4203.467635209842	4
0	2554	4207.015092974599	5
0	2557	4208.269150704063	6
0	2560	4211.768139346734	5
0	2562	4223.434561587714	6
0	2565	4227.580258283194	7
0	2568	4228.352182850598	8
0	2570	4228.625830391445	9
0	2572	4229.098833321008	8
0	2575	4232.821089082406	9
0	2577	4235.143723851222	10
0	2579	4235.274563653471	9
0	2582	4245.607588831345	10
0	2584	4245.778700127438	11
0	2586	4246.782477123984	10
0	2589	4257.893578127497	11
0	2591	4264.311471033905	10
0	2594	4268.421180386388	11
0	2596	4269.251971647813	12
0	2598	4276.074395676213	11
0	2601	4285.776234120543	10
0	2604	4286.010053219688	9
0	2607	4286.981686270795	8
0	2610	4290.065850595966	7
0	2613	4295.078021835003	8
0	2615	4295.781240088963	7
0	2618	4304.04632378597	6
0	2620	4304.941193180126	5
0	2622	4309.025518876388	4
0	2624	4313.440758275427	5
0	2627	4313.952591844285	6
0	2630	4318.231820129038	5
0	2632	4320.172307414448	4
0	2634	4322.433773758932	3
0	2636	4338.301528790558	4
0	2639	4338.831675729572	5
0	2642	4341.78319755008	6
0	2645	4345.640549657733	7
0	2648	4345.734679425933	8
0	2650	4348.879101846988	9
0	2652	4349.399902614458	10
0	2654	4350.254621370131	11
0	2656	4351.684483026989	10
0	2659	4354.401692022595	9
0	2662	4355.0768740317	8
0	2665	4361.197506319642	7
0	2668	4361.891206878351	8
0	2670	4363.923914900463	7
0	2673	4366.920139075928	6
0	2675	4369.475450454287	7
0	2678	4371.97854428271	6
0	2680	4379.26290041115	7
0	2683	4382.7454028256	8
0	2685	4387.629466907316	7
0	2688	4389.338313093742	8
0	2690	4390.20128477654	9
0	2692	4394.48007484258	8
0	2695	4397.290481946015	9
0	2697	4400.011336757043	8
0	2700	4401.730822233028	7
0	2703	4407.924189043992	6
0	2705	4408.309777510199	5
0	2707	4408.317429748873	4
0	2709	4416.642818166101	3
0	2711	4419.129871042821	2
0	2713	4435.826931048555	3
0	2716	4436.967213509053	4
0	2719	4443.208633858428	5
0	2722	4452.049663605808	6
0	2725	4463.054860220119	5
0	2727	4472.364115337155	6
0	2730	4472.382452449171	7
0	2733	4473.264551794002	8
0	2735	4474.018100855584	7
0	2738	4476.781960492422	8
0	2740	4489.106687251203	9
0	2742	4491.146300668176	8
0	2745	4495.33355569214	7
0	2748	4504.871749610947	8
0	2750	4505.419684911589	9
0	2752	4507.986957583606	8
0	2755	4508.552522454209	7
0	2758	4509.163771490333	8
0	2760	4509.475165535305	7
0	2763	4514.162142551746	8
0	2765	4514.929269525641	7
0	2768	4515.829208081395	6
0	2770	4517.492209870561	7
0	2773	4528.929243083183	6
0	2775	4529.661264675341	5
0	2777	4535.366553062693	4
0	2779	4538.330969869044	5
0	2782	4541.835941742934	4
0	2784	4542.303531751772	3
0	2786	4543.681939843478	4
0	2789	4552.790316013703	3
0	2791	4555.381514536364	4
0	2794	4555.645356552826	3
0	2796	4557.730851791845	2
0	2798	4562.991772073824	3
0	2801	4567.012615393792	4
0	2804	4568.868960505163	5
0	2807	4569.08278449498	4
0	2809	4569.439536454878	5
0	2812	4571.320645630221	4
0	2814	4573.758475626935	3
0	2816	4579.714319267476	4
0	2819	4580.907430712399	3
0	2821	4582.725338627192	4
0	2824	4585.820036147137	3
0	2826	4592.664768154994	4
0	2829	4601.040046141708	3
0	2831	4602.881501898006	4
0	2834	4612.475999271268	5
0	2837	4616.408311514353	4
0	2839	4616.617537589304	5
0	2842	4618.021045996743	6
0	2845	4629.343521358011	5
0	2847	4632.387550202122	6
0	2850	4640.070611167729	7
0	2853	4642.986054113542	6
0	2855	4650.515782025949	5
0	2857	4651.015205450936	4
0	2859	4658.044567537066	5
0	2862	4658.277081921188	6
0	2865	4659.655953357074	5
0	2867	4661.883390887404	6
0	2870	4666.739469964144	7
0	2873	4666.860266442199	6
0	2875	4669.853826296801	7
0	2878	4672.481017505544	6
0	2880	4676.752633408422	7
0	2883	4678.286840257353	6
0	2885	4679.971190163076	5
0	2887	4685.963055366896	4
0	2889	4691.271534387917	3
0	2891	4691.918665145388	4
0	2894	4694.97081691278	5
0	2897	4699.45081593259	6
0	2900	4701.431755299149	7
0	2903	4704.957704759446	6
0	2905	4706.499613757266	7
0	2908	4708.360966975641	6
0	2910	4709.999839492803	5
0	2912	4713.280415732139	6
0	2915	4721.903070556377	5
0	2917	4727.680987383813	4
0	2919	4729.663058157423	5
0	2922	4735.930688625416	6
0	2925	4737.885314407458	7
0	2928	4751.072423356545	8
0	2930	4753.511458073781	7
0	2933	4769.189862790614	8
0	2935	4770.993773187228	9
0	2937	4773.736819274552	8
0	2940	4773.923572919148	7
0	2943	4773.958930372327	8
0	2945	4777.116847594676	9
0	2947	4782.72152030623	10
0	2949	4787.450984149291	11
0	2951	4788.379646120594	10
0	2954	4791.758887328418	9
0	2957	4793.817905884543	10
0	2959	4803.076160306702	11
0	2961	4806.187670093145	10
0	2964	4809.738169866253	9
0	2967	4817.061357599175	8
0	2970	4817.968040184619	7
0	2973	4820.876288712543	6
0	2975	4821.008391283698	5
0	2977	4826.507892268105	4
0	2979	4828.496921262746	5
0	2982	4831.560881543589	4
0	2984	4839.695896750793	5
0	2987	4846.248148664564	6
0	2990	4851.73458072394	5
0	2992	4852.200244148624	4
0	2994	4859.060608676298	3
0	2996	4862.948110288125	4
0	2999	4866.903034354765	5
0	3002	4868.595869841879	4
0	3004	4873.153898783328	5
0	3007	4873.415533406271	6
0	3010	4879.86500039224	5
0	3012	4889.788044819773	4
0	3014	4891.178695039106	5
0	3017	4891.433270510743	6
0	3020	4895.437729967889	5
0	3022	4896.962299432801	6
0	3025	4900.685391926464	5
0	3027	4906.220584020487	4
0	3029	4906.476237576738	3
0	3031	4907.745011589293	4
0	3034	4908.734287954597	5
0	3037	4913.223111446154	4
0	3039	4914.563204540627	3
0	3041	4915.111248903408	2
0	3043	4916.195763770696	3
0	3046	4925.017270628342	2
0	3048	4927.383004050957	3
0	3051	4930.41121187816	2
0	3053	4930.81716683889	3
0	3056	4932.834685708755	4
0	3059	4933.910761753206	3
0	3061	4934.60344191098	2
0	3063	4941.042053696487	3
0	3066	4946.963760230422	4
0	3069	4947.050211485039	3
0	3071	4969.78146370578	2
0	3073	4971.685500713496	3
0	3076	4977.780503413129	2
0	3078	4978.491207082879	3
0	3081	4982.099197509295	4
0	3084	4985.365143112432	5
0	3087	4985.949477832812	6
0	3090	4992.970742531785	7
0	3093	5000.031831188555	6
0	3095	5003.040515740961	7
0	3098	5006.66844075045	6
0	3100	5010.556304033642	5
0	3102	5012.719634686409	4
0	3104	5014.439017893924	5
0	3107	5017.456917669365	6
0	3110	5018.003125424391	7
0	3113	5020.638208643355	6
0	3115	5031.23565634947	5
0	3117	5037.924655211666	4
0	3119	5038.608689507025	3
0	3121	5041.396374491981	4
0	3124	5043.321336805271	3
0	3126	5044.566734439343	4
0	3129	5050.24784906124	5
0	3132	5051.731332292841	6
0	3135	5052.826420083931	7
0	3138	5053.339990543749	8
0	3140	5055.71818504505	9
0	3142	5066.488819140826	8
0	3145	5068.703768840644	7
0	3148	5069.753777825758	6
0	3150	5071.861376948943	7
0	3153	5076.75664599581	6
0	3155	5079.029124890571	5
0	3157	5081.059720195292	6
0	3160	5086.66938870316	5
0	3162	5087.003327786868	6
0	3165	5092.939230783489	5
0	3167	5096.088976181622	6
0	3170	5099.439482176361	7
0	3173	5101.527818561416	6
0	3175	5102.420329906778	5
0	3177	5102.968153978067	6
0	3180	5106.445409845289	7
0	3183	5106.917281896181	6
0	3185	5107.08707867119	5
0	3187	5108.228241836293	4
0	3189	5110.051765482614	5
0	3192	5119.585749204711	4
0	3194	5128.455461645554	5
0	3197	5144.841496724547	4
0	3199	5145.138553214148	5
0	3202	5148.491582359439	4
0	3204	5150.939777432636	3
0	3206	5165.482377061946	4
0	3209	5172.193675137069	3
0	3211	5174.36695730388	2
0	3213	5188.863647831229	1
0	3215	5198.109726789031	2
0	3218	5208.390772313924	3
0	3221	5212.634621824631	2
0	3223	5227.844551821478	3
0	3226	5233.730718630513	4
0	3229	5234.743687046264	3
0	3231	5243.938477869623	4
0	3234	5244.580707804695	5
0	3237	5246.247193959644	6
0	3240	5248.133913799724	5
0	3242	5248.550105136582	6
0	3245	5249.404789081845	7
0	3248	5250.476231740808	8
0	3250	5250.553951636063	7
0	3253	5252.197219443576	8
0	3255	5255.045600449893	7
0	3258	5257.036406333991	6
0	3260	5259.544508602759	7
0	3263	5262.114442971415	6
0	3265	5262.835525014761	5
0	3267	5269.212000667368	4
0	3269	5269.792060307515	3
0	3271	5270.038103571748	4
0	3274	5277.166165591401	3
0	3276	5281.267510622895	4
0	3279	5283.604413314284	3
0	3281	5284.688903918357	2
0	3283	5296.439349251457	3
0	3286	5297.070374574971	2
0	3288	5298.756017016347	3
0	3291	5299.275365504612	4
0	3294	5307.290739636166	3
0	3296	5309.175542826271	4
0	3299	5311.995439130452	3
0	3301	5314.010030085232	4
0	3304	5315.758646970798	5
0	3307	5316.362950421573	6
0	3310	5319.994613640674	5
0	3312	5328.98777394655	4
0	3314	5329.054115986322	5
0	3317	5331.357742429512	6
0	3320	5341.955617214114	5
0	3322	5349.536404969282	4
0	3324	5356.077092444095	5
0	3327	5357.85413410669	4
0	3329	5368.913576203701	3
0	3331	5378.224384112033	4
0	3334	5381.396232089284	5
0	3337	5386.318780564402	6
0	3340	5389.427673472822	7
0	3343	5398.030109600371	6
0	3345	5399.590979927282	7
0	3348	5402.098093436165	8
0	3350	5406.64153642026	7
0	3353	5413.718355181613	6
0	3355	5418.864435387777	5
0	3357	5421.747616816018	6
0	3360	5425.13221083546	7
0	3363	5426.032176431157	8
0	3365	5427.459259931137	7
0	3368	5430.269170460286	8
0	3370	5432.03278173431	9
0	3372	5432.32604423149	8
0	3375	5435.76520645851	9
0	3377	5435.851618311921	10
0	3379	5437.995141312887	11
0	3381	5438.695898136733	10
0	3384	5440.089509368843	9
0	3387	5443.929282355907	8
0	3390	5444.157800092714	9
0	3392	5446.701957801486	8
0	3395	5446.891798012949	7
0	3398	5452.612315846504	6
0	3400	5454.033785747291	7
0	3403	5454.662152774773	6
0	3405	5455.503165118253	5
0	3407	5467.549102501467	6
0	3410	5470.914620672822	7
0	3413	5471.16434547169	6
0	3415	5476.06244830129	5
0	3417	5483.331145080546	4
0	3419	5486.065731136882	5
0	3422	5489.680723150553	4
0	3424	5493.835584355103	3
0	3426	5494.253595649285	4
0	3429	5507.110551552987	3
0	3431	5511.607795577532	4
0	3434	5512.995057561914	5
0	3437	5520.043317246139	6
0	3440	5527.440697099602	5
0	3442	5528.424379295331	4
0	3444	5532.558017012202	3
0	3446	5537.83089480877	2
0	3448	5541.867805147649	3
0	3451	5544.561294622436	4
0	3454	5553.491923993315	3
0	3456	5555.598663472685	4
0	3459	5561.720024654718	3
0	3461	5571.865856111229	2
0	3463	5578.534039597031	3
0	3466	5578.77847106126	2
0	3468	5580.881553585774	1
0	3470	5588.495428981198	0
0	3472	5596.987008793522	1
0	3475	5603.025238490228	2
0	3478	5608.761155588466	1
0	3480	5608.921301997848	2
0	3483	5610.447763963331	3
0	3486	5619.714951657544	4
0	3489	5619.836100868156	5
0	3492	5622.26761754007	4
0	3494	5624.3332269068	3
0	3496	5624.373362658439	4
0	3499	5626.480561559797	3
0	3501	5630.022915976055	4
0	3504	5631.177014134531	5
0	3507	5633.497912576123	6
0	3510	5634.143342834881	5
0	3512	5635.544978778019	4
0	3514	5645.281313417681	5
0	3517	5649.973561599486	4
0	3519	5652.481170042495	3
0	3521	5654.592261704634	4
0	3524	5657.293963191673	5
0	3527	5679.854197064892	4
0	3529	5685.326132033182	5
0	3532	5685.837506740938	4
0	3534	5692.484444337174	3
0	3536	5693.896303973146	4
0	3539	5700.549142465709	3
0	3541	5703.378985439427	4
0	3544	5704.229910402909	3
0	3546	5721.521483010369	4
0	3549	5722.030504042683	5
0	3552	5729.548039229275	6
0	3555	5733.448591729398	5
0	3557	5740.525726392154	6
0	3560	5743.94751744014	7
0	3563	5747.2029273317	8
0	3565	5753.02179250754	7
0	3568	5755.792420018913	6
0	3570	5756.588985062798	7
0	3573	5758.021221810378	8
0	3575	5758.172184384769	9
0	3577	5759.53538856756	10
0	3579	5764.057547166399	9
0	3582	5766.66959963075	8
0	3585	5767.788620868343	7
0	3588	5770.468456437732	6
0	3590	5776.556422244701	7
0	3593	5780.886917971219	6
0	3595	5781.793289901645	5
0	3597	5789.969446113814	4
0	3599	5791.280076725558	5
0	3602	5792.190716603822	6
0	3605	5792.729742504569	5
0	3607	5793.038919982311	4
0	3609	5794.667813867591	3
0	3611	5815.786174213687	2
0	3613	5821.501123754206	3
0	3616	5828.914245217881	2
0	3618	5831.918517003387	3
0	3621	5833.402103979711	4
0	3624	5833.626520234047	3
0	3626	5840.945588681411	2
0	3628	5850.646956667492	3
0	3631	5851.836467263936	4
0	3634	5854.375071908816	3
0	3636	5865.440767677334	4
0	3639	5870.667334482186	3
0	3641	5896.901278473529	4
0	3644	5901.263892089659	5
0	3647	5911.831460651358	4
0	3649	5913.168984340526	5
0	3652	5917.803484673731	6
0	3655	5921.341483909802	5
0	3657	5923.844217716954	4
0	3659	5928.506607080594	3
0	3661	5933.525067385637	4
0	3664	5941.157172170989	3
0	3666	5959.38906464141	4
0	3669	5961.158902458802	5
0	3672	5967.958923749689	6
0	3675	5977.060843827494	5
0	3677	5979.340477161052	4
0	3679	5979.352679259896	3
0	3681	5982.429546884439	2
0	3683	5984.05822493236	3
0	3686	5986.463789735653	2
0	3688	5987.872568954218	3
0	3691	5988.012612005265	2
0	3693	5988.086699035741	1
0	3695	5996.357767791033	0
0	3697	6004.657668763114	1
0	3700	6006.171603752454	2
0	3703	6012.067379077846	3
0	3706	6014.745763129726	2
0	3708	6028.092511540479	3
0	3711	6039.908441506604	4
0	3714	6045.033934535709	5
0	3717	6050.298788264574	6
0	3720	6056.56200400355	7
0	3723	6058.753983274565	6
0	3725	6061.564702186939	5
0	3727	6066.408597331022	4
0	3729	6076.595576903497	5
0	3732	6076.796358400456	4
0	3734	6080.564493460069	3
0	3736	6081.22288082356	4
0	3739	6082.131298894653	3
0	3741	6082.696304877328	4
0	3744	6083.609640936042	3
0	3746	6086.246591613549	4
0	3749	6086.475459760224	5
0	3752	6095.394461861152	6
0	3755	6097.825985941338	7
0	3758	6101.95476958252	8
0	3760	6116.715909020975	9
0	3762	6117.600915961019	8
0	3765	6124.333942057807	9
0	3767	6124.5077694029	10
0	3769	6129.931511350982	11
0	3771	6131.202204474406	12
0	3773	6133.919850012905	11
0	3776	6136.892584267856	12
0	3778	6137.437909519413	11
0	3781	6138.104099933319	10
0	3784	6145.543032040952	9
0	3787	6149.152310503835	10
0	3789	6153.642198948761	9
0	3792	6153.667272350379	10
0	3794	6153.950162254791	11
0	3796	6154.772054758672	12
0	3798	6160.559291630298	11
0	3801	6162.228237877166	10
0	3804	6166.507281444893	9
0	3807	6166.909638350098	8
0	3810	6167.922572913084	7
0	3813	6169.897819145431	8
0	3815	6171.77002036173	7
0	3818	6176.044564860252	6
0	3820	6177.488472061952	5
0	3822	6178.411644387266	4
0	3824	6178.937206709172	5
0	3827	6181.056214862093	4
0	3829	6186.072589863621	5
0	3832	6189.550879513526	6
0	3835	6194.993738577003	7
0	3838	6196.581189090339	6
0	3840	6198.272966026386	5
0	3842	6205.140142844838	4
0	3844	6206.975384683013	5
0	3847	6210.663834482963	4
0	3849	6212.946127322314	3
0	3851	6214.319626171626	2
0	3853	6215.192876342572	3
0	3856	6228.111533085366	2
0	3858	6228.312927462396	3
0	3861	6234.954049022226	4
0	3864	6235.452245263214	3
0	3866	6238.624649596699	4
0	3869	6239.334135734136	5
0	3872	6240.569169312969	4
0	3874	6241.872060869112	5
0	3877	6247.834277546235	6
0	3880	6249.405631870959	5
0	3882	6250.948961067544	6
0	3885	6254.647548164125	7
0	3888	6255.102361858237	8
0	3890	6257.813281789461	9
0	3892	6259.364977795482	10
0	3894	6263.013379582379	11
0	3896	6263.690420369373	12
0	3898	6266.300669528482	13
0	3900	6270.029082945333	12
0	3903	6270.7730784437	11
0	3906	6272.003651380015	10
0	3909	6276.387619018449	9
0	3912	6276.641714208285	8
0	3915	6279.379034285918	7
0	3918	6286.80341938747	6
0	3920	6289.204628007499	5
0	3922	6291.627511167992	6
0	3925	6301.298543586799	5
0	3927	6311.458566901059	4
0	3929	6313.552778103848	5
0	3932	6314.09315134933	6
0	3935	6314.593698400305	5
0	3937	6317.307994369616	6
0	3940	6320.03630486431	5
0	3942	6322.356022178179	6
0	3945	6324.479727595965	5
0	3947	6325.00327650535	4
0	3949	6333.497443159435	5
0	3952	6333.909066548328	6
0	3955	6336.604513287838	7
0	3958	6339.372465422489	8
0	3960	6348.419461441122	7
0	3963	6357.970087154346	8
0	3965	6360.144064172706	9
0	3967	6369.347835298565	10
0	3969	6377.679615589783	9
0	3972	6381.694137288796	8
0	3975	6385.5130606921	7
0	3978	6389.304034791534	8
0	3980	6392.534920991653	9
0	3982	6393.330810880699	10
0	3984	6393.82493144019	11
0	3986	6403.849974754024	12
0	3988	6409.113490634697	13
0	3990	6412.883760200565	14
0	3992	6428.36570942982	15
0	3994	6431.574428774185	16
0	3996	6431.623481046947	17
0	3998	6432.155193513527	18
0	4000	6434.591779537029	17
0	4003	6435.412029193328	18
0	4005	6438.802891689025	19
0	4007	6441.513493449455	18
0	4010	6450.105503329748	19
0	4012	6454.921315010865	20
0	4014	6458.859876517447	21
0	4016	6460.195391352677	20
0	4019	6464.830345688219	19
0	4022	6472.263802181335	20
0	4024	6480.636785877493	19
0	4027	6485.039091114895	20
0	4029	6485.046644425419	19
0	4032	6496.666638156101	18
0	4035	6499.380594767418	19
0	4037	6503.921415111169	18
0	4040	6513.17042239526	19
0	4042	6515.869198391709	20
0	4044	6521.471320766774	19
0	4047	6522.319605992349	18
0	4050	6527.037912820934	17
0	4053	6534.08396360885	16
0	4056	6534.615989275611	15
0	4059	6536.740758276296	16
0	4061	6538.49851837291	15
0	4064	6543.940966241199	14
0	4067	6547.841285910282	15
0	4069	6551.485597286988	14
0	4072	6556.083475260893	15
0	4074	6558.064498247967	14
0	4077	6567.796359954931	15
0	4079	6571.409915587589	16
0	4081	6572.174490367392	15
0	4084	6582.175601802929	14
0	4087	6583.538223066734	15
0	4089	6591.196934644552	14
0	4092	6592.517219775911	15
0	4094	6595.508380151449	14
0	4097	6596.187808508606	13
0	4100	6596.396528557385	12
0	4103	6597.623115532384	11
0	4106	6600.670165184293	10
0	4109	6603.868013881198	11
0	4111	6607.773203317672	10
0	4114	6611.506707626301	11
0	4116	6613.484547921257	10
0	4119	6619.306426028685	9
0	4122	6627.573742240432	8
0	4125	6629.365391815098	9
0	4127	6629.641993180923	8
0	4130	6631.429934289311	9
0	4132	6638.319980425682	8
0	4135	6647.87101912929	7
0	4138	6650.73581318349	6
0	4140	6654.740368074149	5
0	4142	6659.815018877866	4
0	4144	6662.159543235806	5
0	4147	6667.75673491652	6
0	4150	6667.792614627049	7
0	4153	6673.213392732463	8
0	4155	6676.627839988804	9
0	4157	6677.26891113037	10
0	4159	6678.495174922753	9
0	4162	6682.67600994403	10
0	4164	6683.676614944401	11
0	4166	6688.730628010299	12
0	4168	6689.280306759586	11
0	4171	6693.457423645456	12
0	4173	6696.076575818798	13
0	4175	6697.574970002658	14
0	4177	6698.525182000015	13
0	4180	6701.744765603521	12
0	4183	6704.203148143539	13
0	4185	6704.947366156286	12
0	4188	6709.242028469006	11
0	4191	6709.815201514324	10
0	4194	6710.115091421839	11
0	4196	6713.262963973788	10
0	4199	6714.286731469627	9
0	4202	6724.003296116808	10
0	4204	6724.453714749216	11
0	4206	6725.080001042616	10
0	4209	6728.909899002229	11
0	4211	6740.656661638585	10
0	4214	6742.716187611497	11
0	4216	6742.746061579685	12
0	4218	6752.558293389672	11
0	4221	6755.374412956779	10
0	4224	6760.903749423589	9
0	4227	6763.116489149736	8
0	4230	6767.067028572042	9
0	4232	6780.080625001686	8
0	4235	6781.161180996028	9
0	4237	6785.351035615267	8
0	4240	6787.340281641672	7
0	4243	6790.050760011728	8
0	4245	6800.423941383738	9
0	4247	6801.483837852512	10
0	4249	6805.024928061018	11
0	4251	6807.442618363546	12
0	4253	6812.531644855054	11
0	4256	6813.002008699847	12
0	4258	6813.575364710668	11
0	4261	6814.743270816519	12
0	4263	6815.646759979806	13
0	4265	6818.362679223406	12
0	4268	6820.491043552488	11
0	4271	6822.556362091509	10
0	4274	6826.312094158259	9
0	4277	6827.722369492695	10
0	4279	6831.077632896174	11
0	4281	6833.19681272627	12
0	4283	6837.16768582567	11
0	4286	6839.302557177648	12
0	4288	6840.355765339067	13
0	4290	6845.518255045313	12
0	4293	6845.853136982691	13
0	4295	6846.525219877414	12
0	4298	6851.946399442058	11
0	4301	6852.45284213426	10
0	4304	6855.56980096585	9
0	4307	6857.453252367347	8
0	4310	6858.570415370299	7
0	4313	6864.051928924834	8
0	4315	6864.841277962539	7
0	4318	6865.966642979282	8
0	4320	6872.002402442538	7
0	4323	6874.457786758276	6
0	4325	6877.821317129949	5
0	4327	6889.824198436969	6
0	4330	6901.696298281902	5
0	4332	6902.390227853116	6
0	4335	6903.924360735165	5
0	4337	6919.099736685834	4
0	4339	6920.137432488512	3
0	4341	6927.589755402776	4
0	4344	6933.548834337137	5
0	4347	6937.945823261017	4
0	4349	6939.022298941657	5
0	4352	6942.252891967953	4
0	4354	6943.00216492112	3
0	4356	6948.520309865945	4
0	4359	6948.524194002878	5
0	4362	6952.064520006731	4
0	4364	6953.736386979527	5
0	4367	6959.55474974417	6
0	4370	6961.138899332719	5
0	4372	6971.38474112792	4
0	4374	6988.593309060781	3
0	4376	6991.345201322663	4
0	4379	6994.308620875053	5
0	4382	7005.472305168285	4
0	4384	7011.446889506418	5
0	4387	7014.709971223528	4
0	4389	7021.442318765797	5
0	4392	7026.281740192229	6
0	4395	7028.469885609033	7
0	4398	7032.718016728169	8
0	4400	7035.112789297527	7
0	4403	7047.959437284647	6
0	4405	7052.413966332613	7
0	4408	7056.048603358805	8
0	4410	7066.580736503272	7
0	4413	7069.095646757137	8
0	4415	7070.712650044521	7
0	4418	7071.958410770818	8
0	4420	7080.644897524202	7
0	4423	7085.441689506761	6
0	4425	7101.173005487019	5
0	4427	7106.798294018029	6
0	4430	7110.175832408212	5
0	4432	7115.972978586683	4
0	4434	7117.135942933842	5
0	4437	7120.038223799887	6
0	4440	7121.645742823587	7
0	4443	7126.334578739469	6
0	4445	7127.625780793597	7
0	4448	7128.333014218826	6
0	4450	7133.350587169248	5
0	4452	7133.790362344746	4
0	4454	7134.562860064023	5
0	4457	7135.013013263255	6
0	4460	7136.854790823359	7
0	4463	7137.302672675256	6
0	4465	7144.727949729846	7
0	4468	7145.528458207055	8
0	4470	7145.812755677099	9
0	4472	7147.321458891116	8
0	4475	7149.642268402331	7
0	4478	7152.235008894284	8
0	4480	7158.933301582608	7
0	4483	7161.947425734987	6
0	4485	7161.97262240146	5
0	4487	7171.556259900694	6
0	4490	7172.834343868437	7
0	4493	7178.68729650332	8
0	4495	7178.716754327063	7
0	4498	7184.891078600349	6
0	4500	7196.285993514959	5
0	4502	7201.117900854052	6
0	4505	7201.335956960792	5
0	4507	7202.384334193	6
0	4510	7207.71596181377	7
0	4513	7210.363664470529	6
0	4515	7210.385392855667	7
0	4518	7211.267597115502	6
0	4520	7216.829436232292	5
0	4522	7219.016398724408	4
0	4524	7222.087181579825	3
0	4526	7223.65537230962	2
0	4528	7235.216828154629	3
0	4531	7239.844012427634	2
0	4533	7240.275034421432	1
0	4535	7245.358673537121	2
0	4538	7246.663270558758	1
0	4540	7247.676578594666	2
0	4543	7253.722614607587	3
0	4546	7260.715096098274	4
0	4549	7262.526834858942	5
0	4552	7268.831469825953	4
0	4554	7269.048304808299	3
0	4556	7276.308232299382	4
0	4559	7277.272947155476	5
0	4562	7278.660671906503	6
0	4565	7281.58937567471	5
0	4567	7281.598114619626	6
0	4570	7285.11630227186	5
0	4572	7286.830571693232	4
0	4574	7290.359015410494	5
0	4577	7310.638718525379	4
0	4579	7318.990145433561	3
0	4581	7329.475510281945	2
0	4583	7330.464868562613	1
0	4585	7331.927939082407	2
0	4588	7332.949353313065	3
0	4591	7345.434978116827	4
0	4594	7348.9568874971	5
0	4597	7356.222472547597	6
0	4600	7359.183403562496	5
0	4602	7363.294475943956	6
0	4605	7365.098670426503	7
0	4608	7367.655936940992	8
0	4610	7373.038072496671	9
0	4612	7382.334804829349	10
0	4614	7389.832469448197	9
0	4617	7393.47778691229	10
0	4619	7395.470355486888	9
0	4622	7396.151973090451	8
0	4625	7398.011397270486	7
0	4628	7401.373562203831	8
0	4630	7404.769399767473	7
0	4633	7404.941324614968	8
0	4635	7405.257276838241	7
0	4638	7409.7440288202	6
0	4640	7411.315238190907	5
0	4642	7416.651432376566	6
0	4645	7418.055398799544	5
0	4647	7424.717711523512	6
0	4650	7427.782029651223	5
0	4652	7428.293003454414	4
0	4654	7431.64292630721	5
0	4657	7439.689225593251	6
0	4660	7441.896132539691	7
0	4663	7442.400650605654	6
0	4665	7448.586776974827	7
0	4668	7450.323303138519	8
0	4670	7459.464867247825	7
0	4673	7464.564353972169	6
0	4675	7467.457532891013	7
0	4678	7467.604429828633	8
0	4680	7476.130879193322	7
0	4683	7483.744679786849	6
0	4685	7487.033495024048	5
0	4687	7488.475162609982	6
0	4690	7490.852249406457	5
0	4692	7497.46645966967	6
0	4695	7499.280251273506	7
0	4698	7499.99641271826	6
0	4700	7507.325221044739	5
0	4702	7508.342645110155	6
0	4705	7512.939137641465	7
0	4708	7513.301179926299	6
0	4710	7532.009438318334	5
0	4712	7538.218509951343	6
0	4715	7541.264303948195	7
0	4718	7543.557306602871	8
0	4720	7548.26901824474	9
0	4722	7550.310045319641	8
0	4725	7551.716306499662	7
0	4728	7554.275356399165	6
0	4730	7555.571570985138	5
0	4732	7559.828043581037	6
0	4735	7560.321356757325	5
0	4737	7586.273243562054	4
0	4739	7587.174009617081	5
0	4742	7588.92780300189	4
0	4744	7589.538496832258	3
0	4746	7591.102978413319	2
0	4748	7594.271947575929	3
0	4751	7603.567501071679	2
0	4753	7604.716079205927	3
0	4756	7624.768727230219	4
0	4759	7626.17470434774	5
0	4762	7626.278383999538	6
0	4765	7630.719727624967	5
0	4767	7630.810379519938	6
0	4770	7634.198111803276	7
0	4773	7634.246617113966	8
0	4775	7637.542027292487	9
0	4777	7639.331895007135	8
0	4780	7643.936953216554	9
0	4782	7646.570731615622	10
0	4784	7647.843716809989	9
0	4787	7654.490490958491	10
0	4789	7654.924863827019	11
0	4791	7656.122786010654	10
0	4794	7660.085030196593	9
0	4797	7663.46664831226	10
0	4799	7664.614207867972	11
0	4801	7665.736742176679	12
0	4803	7666.454136453312	13
0	4805	7679.456114356779	12
0	4808	7694.149741640853	13
0	4810	7695.51728243045	12
0	4813	7698.176901689213	13
0	4815	7709.005348613635	12
0	4818	7714.339899890161	11
0	4821	7715.746788804818	12
0	4823	7723.224805862642	11
0	4826	7723.521284754906	10
0	4829	7727.600502842361	11
0	4831	7727.703589180441	12
0	4833	7733.689973773484	13
0	4835	7734.71647678695	12
0	4838	7738.076718603524	13
0	4840	7741.884375527591	12
0	4843	7744.041402498062	11
0	4846	7754.575696439824	10
0	4849	7756.730009551528	9
0	4852	7757.034461352462	10
0	4854	7758.401142980382	11
0	4856	7759.212456103765	10
0	4859	7759.693354650049	9
0	4862	7761.186703285997	8
0	4865	7765.793816348105	9
0	4867	7766.801382227299	8
0	4870	7766.910406505314	7
0	4873	7768.594435732002	6
0	4875	7771.341857391796	7
0	4878	7774.032477461903	8
0	4880	7776.196507028541	9
0	4882	7779.676004681603	8
0	4885	7784.192865643783	7
0	4888	7793.666889421282	6
0	4890	7794.819440022406	5
0	4892	7799.306556570176	4
0	4894	7801.086507513373	5
0	4897	7801.676368664102	6
0	4900	7803.428454726158	5
0	4902	7803.971477089488	4
0	4904	7810.077237332401	5
0	4907	7811.582215283183	4
0	4909	7815.69219412792	5
0	4912	7817.689092623026	4
0	4914	7820.693513679245	5
0	4917	7822.536623368252	6
0	4920	7824.425081701293	5
0	4922	7824.625224394206	4
0	4924	7825.710585480912	3
0	4926	7827.740214116074	2
0	4928	7831.617884663962	1
0	4930	7831.691735690297	2
0	4933	7834.253405920044	3
0	4936	7837.804219707329	2
0	4938	7843.677748955253	1
0	4940	7846.9998887425	0
0	4942	7854.046031389121	1
0	4945	7862.594432501008	2
0	4948	7864.673564834666	3
0	4951	7866.24952449232	2
0	4953	7869.829282318435	3
0	4956	7875.882015797577	4
0	4959	7877.641395766025	5
0	4962	7908.345396954167	4
0	4964	7916.54469874785	5
0	4967	7920.422222138433	4
0	4969	7931.259532954077	5
0	4972	7932.666580301605	4
0	4974	7935.457436724929	5
0	4977	7941.783396531743	4
0	4979	7943.358114295474	3
0	4981	7949.435454062219	2
0	4983	7949.686940372316	1
0	4985	7949.801464494819	2
0	4988	7951.090968265684	3
0	4991	7952.088369418998	4
0	4994	7953.271305168438	3
0	4996	7956.796244431483	4
0	4999	7971.023705607164	3
0	5001	7975.502320694763	4
0	5004	7980.078893464491	5
0	5007	7987.281688418986	4
0	5009	7989.456714067517	5
0	5012	7989.921927702832	6
0	5015	7990.613071955259	5
0	5017	7999.851384657511	6
0	5020	8003.481801236974	7
0	5023	8007.600325743559	6
0	5025	8007.879752562526	5
0	5027	8019.127210179249	6
0	5030	8019.424429891924	7
0	5033	8022.175285359931	8
0	5035	8025.282680386791	7
0	5038	8033.945659516994	6
0	5040	8040.871792205381	7
0	5043	8041.602286050132	8
0	5045	8044.070458570713	9
0	5047	8047.919515751204	8
0	5050	8049.790482590404	7
0	5053	8053.892668445254	8
0	5055	8057.52858755837	9
0	5057	8057.635890731084	10
0	5059	8063.579104701042	11
0	5061	8066.362953259934	10
0	5064	8067.056046196646	11
0	5066	8071.886591909407	10
0	5069	8074.297926879276	11
0	5071	8077.585841465796	12
0	5073	8078.506865811673	11
0	5076	8080.715783967331	10
0	5079	8084.116354922329	9
0	5082	8089.809778550069	8
0	5085	8093.228620589092	7
0	5088	8099.42796206945	6
0	5090	8106.114692942493	5
0	5092	8108.16741615904	6
0	5095	8108.791091389857	5
0	5097	8109.84239388498	6
0	5100	8111.367205590948	5
0	5102	8116.605723549893	4
0	5104	8119.097730316953	5
0	5107	8121.999560026228	6
0	5110	8122.783271908676	5
0	5112	8131.962144181827	6
0	5115	8132.211185652795	5
0	5117	8137.854593346903	4
0	5119	8142.443911152458	3
0	5121	8142.897690258132	2
0	5123	8148.300183006143	1
0	5125	8151.877591036769	2
0	5128	8154.441637629216	3
0	5131	8155.428559644155	4
0	5134	8156.14015275972	3
0	5136	8158.474609541117	4
0	5139	8160.669728975569	3
0	5141	8166.122587395888	4
0	5144	8169.9850076508	5
0	5147	8171.129833763911	4
0	5149	8171.276593970988	5
0	5152	8177.250293979661	4
0	5154	8179.084254730811	3
0	5156	8188.514591397833	4
0	5159	8190.094959862243	5
0	5162	8195.460113601831	4
0	5164	8199.368574287295	3
0	5166	8201.157983164749	4
0	5169	8209.811480876105	3
0	5171	8224.828723381704	2
0	5173	8227.642946533738	3
0	5176	8229.471006096046	4
0	5179	8231.935176087011	3
0	5181	8232.112376349537	4
0	5184	8233.764203302434	5
0	5187	8239.285578155648	4
0	5189	8242.170196501008	3
0	5191	8245.533177587721	4
0	5194	8245.66998142253	5
0	5197	8247.400262803907	6
0	5200	8249.454521625314	7
0	5203	8251.133778527548	6
0	5205	8253.183979362871	5
0	5207	8261.401269952566	4
0	5209	8264.102693600438	5
0	5212	8264.226515564351	4
0	5214	8267.932647443773	3
0	5216	8269.124811096246	2
0	5218	8274.814926897552	1
0	5220	8275.40598307893	2
0	5223	8275.885683050481	1
0	5225	8277.555765027467	2
0	5228	8280.924612299126	3
0	5231	8289.023157825944	4
0	5234	8289.601273919204	5
0	5237	8297.213134649025	6
0	5240	8298.141624006224	7
0	5243	8307.937546950657	6
0	5245	8315.675551181021	7
0	5248	8320.814868844078	8
0	5250	8322.802167270621	7
0	5253	8323.065410888891	6
0	5255	8323.45876524417	7
0	5258	8326.615826895197	6
0	5260	8333.042234207929	5
0	5262	8336.768969689687	6
0	5265	8345.19399752786	5
0	5267	8349.994103000718	4
0	5269	8350.508923470997	5
0	5272	8351.87048159391	6
0	5275	8354.794822528874	7
0	5278	8354.978968201416	8
0	5280	8355.276828534919	9
0	5282	8357.14385663483	8
0	5285	8360.580147421807	9
0	5287	8360.801302481825	10
0	5289	8362.203517466898	9
0	5292	8362.97808153724	10
0	5294	8364.93595802191	9
0	5297	8376.06740860613	8
0	5300	8380.766376648057	7
0	5303	8381.213732971018	6
0	5305	8388.075041321823	5
0	5307	8388.994254125195	6
0	5310	8398.078426331155	5
0	5312	8412.622383939731	6
0	5315	8413.471796565027	5
0	5317	8416.602506249584	4
0	5319	8420.400217762394	5
0	5322	8434.330901518647	4
0	5324	8442.776867727718	5
0	5327	8443.541081978775	4
0	5329	8452.411007845419	3
0	5331	8461.83189604203	4
0	5334	8469.437751060469	5
0	5337	8472.352669334206	6
0	5340	8478.727459232431	5
0	5342	8483.130639881416	6
0	5345	8486.201632710794	7
0	5348	8492.753023001716	6
0	5350	8495.650919384026	5
0	5352	8496.910519607891	6
0	5355	8498.718647681206	5
0	5357	8502.208362541259	6
0	5360	8504.012255168543	7
0	5363	8506.473288989162	6
0	5365	8508.758272073008	5
0	5367	8512.832862970426	6
0	5370	8515.85247623165	7
0	5373	8517.417789732027	6
0	5375	8527.130247834654	5
0	5377	8532.564082264551	6
0	5380	8535.17008076675	5
0	5382	8535.277837548151	6
0	5385	8545.475544667579	5
0	5387	8545.989367111847	4
0	5389	8548.03812070186	5
0	5392	8557.419099482196	6
0	5395	8560.061888037541	5
0	5397	8565.02188108956	6
0	5400	8566.480255917467	7
0	5403	8571.897661340804	6
0	5405	8573.524229176898	5
0	5407	8579.965837916978	6
0	5410	8582.102774880568	5
0	5412	8582.890539208114	4
0	5414	8585.44081548977	3
0	5416	8587.573946870998	2
0	5418	8593.107060291417	3
0	5421	8598.837629909253	4
0	5424	8608.373237870588	5
0	5427	8609.680033207976	4
0	5429	8612.172786199422	5
0	5432	8613.344004021407	4
0	5434	8619.558742533052	5
0	5437	8627.286487488018	6
0	5440	8627.459068949993	5
0	5442	8629.932554484741	6
0	5445	8633.539493747339	7
0	5448	8636.949315542169	8
0	5450	8639.260502322915	7
0	5453	8641.778265071233	8
0	5455	8649.951615023947	7
0	5458	8651.417496855523	6
0	5460	8662.597772951632	7
0	5463	8663.883978552924	6
0	5465	8671.478816269112	5
0	5467	8671.832499627531	6
0	5470	8675.673670074921	5
0	5472	8678.230764434114	6
0	5475	8683.206334711395	7
0	5478	8687.544249286633	8
0	5480	8690.554586666755	9
0	5482	8693.17185276902	10
0	5484	8711.293072679733	11
0	5486	8712.408045970454	10
0	5489	8715.077655363155	9
0	5492	8716.114792041142	8
0	5495	8719.787776509436	7
0	5498	8720.598221657824	6
0	5500	8723.516229272693	7
0	5503	8732.87748870437	6
0	5505	8733.447441335277	7
0	5508	8742.180916716634	6
0	5510	8742.625001994176	5
0	5512	8752.441256387491	4
0	5514	8753.744770435567	3
0	5516	8755.468031582874	2
0	5518	8761.595986252637	3
0	5521	8773.504540621091	4
0	5524	8773.574180281847	5
0	5527	8776.127265012626	4
0	5529	8776.341342013409	3
0	5531	8780.821301663406	2
0	5533	8790.611699787202	1
0	5535	8799.691625149897	2
0	5538	8804.834127821516	3
0	5541	8805.19027991676	2
0	5543	8808.493642621643	3
0	5546	8813.41126173442	4
0	5549	8816.692572179955	5
0	5552	8821.76341745555	4
0	5554	8825.798957813983	5
0	5557	8832.85556445372	4
0	5559	8856.389691040388	5
0	5562	8858.597539810436	4
0	5564	8859.720787923325	5
0	5567	8861.794826107108	6
0	5570	8862.90907654996	7
0	5573	8863.292914398017	6
0	5575	8863.841612168923	5
0	5577	8870.232677806628	6
0	5580	8871.859888588635	5
0	5582	8877.623107072882	6
0	5585	8879.252479772926	7
0	5588	8880.12179442923	6
0	5590	8882.592951048088	5
0	5592	8887.03546229263	4
0	5594	8891.52204286549	5
0	5597	8895.41104103885	6
0	5600	8896.101600225014	5
0	5602	8896.418610075206	4
0	5604	8896.765814159502	3
0	5606	8902.659432923045	2
0	5608	8905.871446295986	1
0	5610	8916.499711838268	2
0	5613	8921.571908337125	1
0	5615	8926.626152051967	2
0	5618	8936.055489834672	1
0	5620	8938.323556181273	0
0	5622	8951.823158725178	1
0	5625	8952.258309111604	2
0	5628	8954.08572202737	3
0	5631	8954.945499022059	4
0	5634	8955.65635661312	3
0	5636	8958.613259963124	2
0	5638	8961.986768210295	3
0	5641	8963.275901018358	2
0	5643	8967.006827201338	3
0	5646	8970.335568283318	2
0	5648	8971.414131534912	3
0	5651	8993.524271109677	4
0	5654	9000.163558321046	5
0	5657	9002.060941238588	4
0	5659	9013.23766286794	3
0	5661	9023.264265735237	4
0	5664	9024.00308272602	3
0	5666	9031.448486361226	4
0	5669	9032.914761981361	5
0	5672	9034.427131646072	4
0	5674	9043.603132140681	3
0	5676	9049.685012168876	2
0	5678	9060.192504884924	3
0	5681	9078.14201548387	4
0	5684	9079.089725451594	3
0	5686	9083.168975305082	4
0	5689	9083.19757577819	3
0	5691	9086.407037672072	2
0	5693	9087.180829162434	3
0	5696	9089.275407794508	2
0	5698	9103.924550956089	1
0	5700	9119.332457619493	2
0	5703	9120.394658718618	3
0	5706	9121.01954661191	2
0	5708	9122.692645092103	1
0	5710	9153.313939193559	2
0	5713	9158.879619490561	3
0	5716	9164.285277409309	2
0	5718	9173.005669873389	3
0	5721	9173.131870281289	2
0	5723	9179.441581441483	3
0	5726	9179.788877587304	2
0	5728	9196.645773071784	3
0	5731	9200.292821877927	2
0	5733	9200.452988871787	3
0	5736	9203.008464477628	2
0	5738	9206.905963021068	1
0	5740	9212.785268936095	2
0	5743	9214.970316758259	3
0	5746	9219.51066710487	4
0	5749	9226.779301690571	3
0	5751	9230.077544622693	2
0	5753	9243.51595768599	3
0	5756	9248.808120638273	2
0	5758	9257.963611954581	1
0	5760	9280.766431437863	2
0	5763	9281.27368427351	3
0	5766	9289.163390266529	2
0	5768	9295.094044915506	1
0	5770	9295.549074195846	0
0	5772	9300.598612391389	1
0	5775	9319.831002837813	2
0	5778	9330.45258292011	3
0	5781	9334.356973997673	4
0	5784	9338.439802359264	5
0	5787	9338.834129379515	6
0	5790	9351.11343545001	5
0	5792	9354.320852880338	6
0	5795	9354.744325856196	7
0	5798	9356.859002938628	6
0	5800	9357.950935600554	7
0	5803	9358.730894996919	8
0	5805	9369.77081198272	7
0	5808	9369.978142451154	8
0	5810	9372.152192954063	7
0	5813	9373.842495847214	8
0	5815	9374.342959903634	7
0	5818	9375.448326502503	8
0	5820	9375.857806002307	7
0	5823	9377.279271499742	8
0	5825	9379.472021082865	7
0	5828	9380.689827251754	6
0	5830	9384.949057267629	5
0	5832	9394.381627107518	4
0	5834	9397.62391866898	3
0	5836	9404.436195237768	4
0	5839	9409.315848202558	3
0	5841	9413.409150893484	2
0	5843	9415.460699389763	3
0	5846	9421.736594057355	2
0	5848	9423.964066979574	3
0	5851	9428.543401005376	2
0	5853	9443.205928954083	1
0	5855	9453.985423297543	0
0	5857	9464.247597152378	1
0	5860	9467.839078186575	2
0	5863	9477.970269000486	3
0	5866	9485.781083743739	4
0	5869	9487.508578980493	3
0	5871	9487.619602891629	4
0	5874	9502.641876707621	5
0	5877	9509.142836651308	6
0	5880	9509.856346808232	5
0	5882	9515.150130381445	4
0	5884	9518.956463347573	3
0	5886	9530.309109222723	4
0	5889	9530.377021998596	5
0	5892	9532.883748776682	6
0	5895	9534.946010216723	7
0	5898	9541.177111409461	8
0	5900	9547.320834395131	7
0	5903	9548.814745845542	6
0	5905	9552.868466638761	7
0	5908	9565.967845476128	8
0	5910	9568.005086543276	9
0	5912	9575.00264723303	10
0	5914	9582.118629466229	11
0	5916	9583.374595319327	10
0	5919	9587.148135599703	9
0	5922	9596.169570114797	10
0	5924	9598.193525994496	11
0	5926	9598.315364544959	10
0	5929	9599.026252919253	9
0	5932	9605.215858948437	8
0	5935	9605.837888007306	7
0	5938	9607.073867253739	8
0	5940	9608.806089913845	9
0	5942	9609.355056125622	10
0	5944	9609.60554348888	11
0	5946	9610.862037348743	12
0	5948	9611.946412329101	11
0	5951	9622.33007138052	10
0	5954	9625.784147274276	11
0	5956	9626.593604406334	12
0	5958	9631.774114453096	13
0	5960	9633.934741654765	12
0	5963	9634.963468388236	11
0	5966	9636.782437778399	12
0	5968	9640.941066053779	11
0	5971	9646.505324113753	12
0	5973	9649.812632388988	11
0	5976	9650.977333066178	10
0	5979	9655.423834679224	9
0	5982	9660.176431659374	8
0	5985	9662.990787026194	9
0	5987	9663.674524878088	8
0	5990	9663.748120692101	9
0	5992	9669.374045941445	10
0	5994	9670.26888694275	11
0	5996	9670.788588496787	10
0	5999	9671.151789047371	9
0	6002	9673.763353191506	10
0	6004	9674.647972916338	11
0	6006	9675.564602129278	12
0	6008	9679.533089078364	11
0	6011	9681.638270098181	12
0	6013	9683.022166829066	11
0	6016	9685.373717497661	12
0	6018	9692.178365233221	13
0	6020	9693.135960904376	12
0	6023	9694.861178074063	11
0	6026	9697.306301044925	10
0	6029	9701.836643245357	9
0	6032	9702.140190138272	10
0	6034	9709.62656032373	9
0	6037	9719.931235313139	10
0	6039	9727.00965993232	11
0	6041	9730.818977971881	12
0	6043	9737.84505728119	11
0	6046	9742.697228169661	10
0	6049	9745.762450599231	11
0	6051	9753.996797150147	10
0	6054	9755.80202449851	11
0	6056	9758.046183230755	10
0	6059	9759.632304753137	11
0	6061	9761.047456104199	12
0	6063	9761.975528152431	13
0	6065	9762.937199491893	14
0	6067	9763.7092052739	15
0	6069	9765.302154299256	14
0	6072	9766.735990290744	15
0	6074	9769.933558229712	14
0	6077	9770.313705091596	13
0	6080	9770.432693956179	14
0	6082	9775.941561780589	13
0	6085	9776.638703177808	14
0	6087	9777.090419482426	15
0	6089	9778.022434955499	14
0	6092	9788.421095522678	13
0	6095	9788.860875354001	12
0	6098	9789.423547563903	11
0	6101	9790.987263332707	10
0	6104	9796.67307389427	9
0	6107	9797.279137799911	8
0	6110	9799.707175307817	9
0	6112	9800.906478907158	8
0	6115	9800.990963663405	9
0	6117	9806.252721535197	8
0	6120	9814.979176220225	7
0	6123	9815.993637429862	8
0	6125	9827.591023920566	7
0	6128	9831.028692422871	8
0	6130	9836.081128549711	7
0	6133	9836.383394793811	8
0	6135	9840.638445192799	7
0	6138	9857.330485673898	6
0	6140	9859.325541289425	7
0	6143	9864.571631118214	6
0	6145	9874.44018280448	5
0	6147	9874.556423226562	4
0	6149	9876.807684548761	5
0	6152	9879.256906813241	4
0	6154	9883.179205170836	3
0	6156	9888.216785391893	4
0	6159	9889.044024237858	5
0	6162	9890.226231888214	6
0	6165	9892.641654565105	7
0	6168	9894.673580939072	8
0	6170	9895.430414398067	9
0	6172	9896.944399254091	8
0	6175	9902.011507867381	7
0	6178	9911.745997337078	6
0	6180	9913.126897387651	7
0	6183	9913.249904231334	8
0	6185	9917.260855048367	9
0	6187	9923.443474153872	8
0	6190	9924.551634977442	9
0	6192	9930.016641502171	10
0	6194	9934.814717937918	9
0	6197	9935.17534743529	8
0	6200	9940.756482704742	9
0	6202	9949.021095277219	10
0	6204	9950.466520963925	9
0	6207	9961.498746605799	10
0	6209	9961.638107422263	11
0	6211	9961.936483883056	10
0	6214	9972.577453645015	11
0	6216	9975.171924545662	12
0	6218	9978.480333752339	13
0	6220	9979.936918270795	12
0	6223	9980.199179191099	11
0	6226	9986.065566240795	12
0	6228	9996.350690627204	13
0	6230	9998.279817507306	14
0	6232	10002.379877853244	13
0	6235	10003.984479304348	12
0	6238	10007.986355591998	11
0	6241	10016.415984693356	12
0	6243	10017.548163894534	11
0	6246	10018.762285176232	12
0	6248	10023.710597154196	11
0	6251	10029.566539242553	10
0	6254	10047.435815760981	9
0	6257	10049.648399455379	10
0	6259	10052.951939001088	9
0	6262	10060.481028387125	8
0	6265	10061.696777594392	7
0	6268	10071.222215613716	8
0	6270	10074.558244300579	7
0	6273	10075.852109088201	6
0	6275	10076.022674108596	5
0	6277	10078.152072474126	6
0	6280	10079.897053318051	5
0	6282	10081.892448523678	4
0	6284	10083.535740299403	5
0	6287	10083.688770721723	4
0	6289	10085.970057353792	3
0	6291	10094.316706893376	4
0	6294	10099.144996005854	3
0	6296	10105.243331290901	2
0	6298	10105.780329468181	3
0	6301	10106.493118087682	2
0	6303	10111.559437793684	3
0	6306	10125.907208727573	4
0	6309	10127.088829956997	5
0	6312	10132.062593577125	6
0	6315	10136.755862831523	7
0	6318	10140.395329461596	6
0	6320	10143.656899513805	5
0	6322	10147.637958074825	4
0	6324	10147.907421005459	3
0	6326	10167.049793649839	4
0	6329	10168.156479921252	3
0	6331	10180.089117884272	2
0	6333	10181.808877020288	1
0	6335	10190.34725640135	2
0	6338	10193.18489027196	3
0	6341	10194.085854449427	2
0	6343	10200.373269148788	3
0	6346	10200.533570945276	4
0	6349	10209.320606597298	3
0	6351	10209.689548715516	4
0	6354	10212.546944051066	5
0	6357	10214.449544974494	4
0	6359	10217.601027414077	3
0	6361	10222.89136509625	2
0	6363	10223.309413734888	1
0	6365	10230.034447293693	2
0	6368	10235.002971946027	1
0	6370	10238.312617960888	2
0	6373	10243.965393650498	1
0	6375	10270.019414783279	2
0	6378	10271.073944086419	3
0	6381	10275.473656296948	2
0	6383	10281.277389600011	3
0	6386	10281.781401919784	4
0	6389	10289.12376758242	5
0	6392	10292.021790874225	6
0	6395	10292.996106393455	5
0	6397	10293.161018680602	6
0	6400	10293.240993828491	7
0	6403	10293.727298058744	6
0	6405	10295.109822543677	7
0	6408	10297.236629605695	6
0	6410	10297.331528478617	7
0	6413	10298.300059193892	6
0	6415	10302.345805134008	5
0	6417	10302.755253526522	6
0	6420	10303.139758274472	5
0	6422	10303.688144532468	4
0	6424	10304.277156387753	5
0	6427	10304.874941340507	6
0	6430	10305.803101096706	5
0	6432	10307.481578958938	6
0	6435	10307.961951819379	5
0	6437	10312.267543666611	6
0	6440	10314.041480266287	5
0	6442	10315.32840178223	4
0	6444	10315.953863342206	5
0	6447	10317.698787824887	4
0	6449	10320.72123273766	5
0	6452	10323.150616226419	4
0	6454	10323.890136895506	3
0	6456	10324.864570843061	4
0	6459	10328.232870411506	5
0	6462	10330.272351084163	4
0	6464	10346.188520687895	3
0	6466	10355.618014702891	2
0	6468	10371.521787998953	3
0	6471	10371.952276019579	2
0	6473	10380.364159586887	3
0	6476	10387.477958864854	2
0	6478	10401.050846341997	3
0	6481	10405.405600562359	4
0	6484	10408.417898031492	3
0	6486	10413.921404426432	2
0	6488	10423.848802584417	3
0	6491	10437.676223645084	2
0	6493	10440.578086190654	3
0	6496	10442.734114145209	4
0	6499	10457.104587802855	5
0	6502	10464.801738430483	6
0	6505	10468.380476978356	7
0	6508	10471.778677553211	6
0	6510	10474.137151598122	7
0	6513	10479.092154762597	8
0	6515	10482.409188290821	7
0	6518	10486.838519900299	6
0	6520	10491.288141867653	7
0	6523	10491.316539476419	8
0	6525	10495.748885138238	9
0	6527	10496.828638776563	10
0	6529	10503.778568618262	11
0	6531	10507.928383323571	10
0	6534	10513.10638977083	9
0	6537	10515.513624999201	8
0	6540	10518.896085932771	7
0	6543	10519.16328502738	6
0	6545	10523.928974727287	7
0	6548	10525.18616714331	6
0	6550	10526.717863533821	5
0	6552	10529.128601626658	6
0	6555	10529.556658657685	5
0	6557	10537.023832490814	4
0	6559	10566.306730550162	5
0	6562	10569.049867672642	6
0	6565	10578.432072813669	7
0	6568	10582.34192341704	6
0	6570	10583.618745371615	5
0	6572	10592.227940571069	6
0	6575	10594.845112189002	5
0	6577	10598.904455807968	4
0	6579	10614.177064827214	5
0	6582	10617.744985211367	4
0	6584	10620.440786014899	5
0	6587	10625.414868072616	6
0	6590	10626.208128250504	7
0	6593	10634.572632009264	6
0	6595	10637.330318415805	7
0	6598	10647.093360302468	6
0	6600	10647.814215918055	7
0	6603	10648.45157395349	6
0	6605	10655.333091397228	5
0	6607	10655.630332890471	4
0	6609	10663.373873230778	3
0	6611	10668.417647598495	4
0	6614	10668.706343298199	3
0	6616	10676.195516163722	4
0	6619	10686.826353461987	3
0	6621	10689.201094320163	2
0	6623	10718.96880252361	3
0	6626	10724.12753884467	4
0	6629	10731.711775782441	5
0	6632	10733.391318818345	6
0	6635	10734.044559237025	5
0	6637	10739.125621256224	6
0	6640	10742.055784449322	5
0	6642	10742.883052765896	4
0	6644	10752.780579429293	5
0	6647	10759.083486056122	6
0	6650	10761.908709348541	5
0	6652	10771.876432672941	6
0	6655	10774.691291339363	5
0	6657	10775.878158826617	6
0	6660	10779.493668800211	5
0	6662	10779.991618345339	4
0	6664	10795.031282810327	3
0	6666	10797.633795342816	4
0	6669	10801.225402653363	3
0	6671	10803.136499026723	2
0	6673	10803.757572205713	3
0	6676	10806.083458000694	4
0	6679	10807.072960805358	3
0	6681	10812.666458405128	2
0	6683	10818.424371145139	3
0	6686	10821.762977374212	4
0	6689	10830.815587400211	3
0	6691	10834.602761344003	4
0	6694	10835.055815536239	5
0	6697	10837.231771589291	4
0	6699	10840.813628457462	5
0	6702	10842.20921146707	4
0	6704	10842.873463613376	5
0	6707	10843.868585012619	4
0	6709	10846.896708650737	5
0	6712	10858.121506244464	4
0	6714	10861.786958959547	5
0	6717	10863.961295449466	6
0	6720	10864.455005456693	5
0	6722	10865.013967905817	6
0	6725	10876.602343567928	7
0	6728	10881.308447559287	6
0	6730	10888.021323709654	7
0	6733	10888.821624239603	6
0	6735	10890.444145493495	5
0	6737	10892.220852606315	4
0	6739	10892.854364735233	5
0	6742	10895.746812305593	4
0	6744	10901.274199744149	5
0	6747	10901.67308180806	6
0	6750	10904.673486824062	7
0	6753	10905.835730083589	6
0	6755	10905.983545353648	7
0	6758	10907.41836339773	6
0	6760	10909.513472714029	5
0	6762	10910.574337409817	6
0	6765	10919.40770839	5
0	6767	10923.183706643606	6
0	6770	10933.585505686818	5
0	6772	10933.73835295784	6
0	6775	10942.620042306462	5
0	6777	10943.82693225251	4
0	6779	10948.021097707593	5
0	6782	10951.216879663095	6
0	6785	10961.037140524262	7
0	6788	10962.537482892742	6
0	6790	10968.14858386694	7
0	6793	10970.716798069087	8
0	6795	10979.202106910052	7
0	6798	10983.964099077621	6
0	6800	10987.006778351803	7
0	6803	10998.089514099213	6
0	6805	11004.83617384702	7
0	6808	11010.873391348493	8
0	6810	11011.892896608895	9
0	6812	11013.380085058573	8
0	6815	11014.323986322914	9
0	6817	11015.241751035204	10
0	6819	11018.863690355596	11
0	6821	11029.732726861788	10
0	6824	11030.199932019748	11
0	6826	11033.534194747848	12
0	6828	11036.926533506645	11
0	6831	11037.882971439329	10
0	6834	11045.608546300468	9
0	6837	11046.306236686215	8
0	6840	11047.017147001365	7
0	6843	11052.301938726643	8
0	6845	11057.206232909893	7
0	6848	11057.430413240719	6
0	6850	11061.415758346952	7
0	6853	11061.954671827015	8
0	6855	11062.51971201614	7
0	6858	11063.659120710739	6
0	6860	11064.479195049018	5
0	6862	11065.394179167511	6
0	6865	11068.769400780466	5
0	6867	11069.97422979113	4
0	6869	11071.218545657908	5
0	6872	11072.776285020499	4
0	6874	11084.839154381538	3
0	6876	11086.77894808876	2
0	6878	11090.975572773224	1
0	6880	11096.203987245156	0
0	6882	11100.25854332933	1
0	6885	11103.394535749331	2
0	6888	11105.123946448946	3
0	6891	11113.296362270671	4
0	6894	11121.151893965877	5
0	6897	11123.556258650052	6
0	6900	11126.534340731264	7
0	6903	11132.985652288055	6
0	6905	11144.274767683177	7
0	6908	11148.649091812841	6
0	6910	11150.908618524587	7
0	6913	11151.810338322888	6
0	6915	11153.970131858139	7
0	6918	11163.976141977556	6
0	6920	11166.88153763846	7
0	6923	11167.50876889826	8
0	6925	11167.642787913671	9
0	6927	11173.201689956837	8
0	6930	11174.430653677011	7
0	6933	11178.149168982089	8
0	6935	11178.193578141163	7
0	6938	11178.592892238825	6
0	6940	11179.633806669831	7
0	6943	11184.450621601828	6
0	6945	11187.005937205922	7
0	6948	11188.182229302999	6
0	6950	11191.986812118223	5
0	6952	11192.876526220195	6
0	6955	11195.016064156308	7
0	6958	11196.034913189929	6
0	6960	11196.04578823709	7
0	6963	11197.12536097082	6
0	6965	11198.682389836378	5
0	6967	11202.988318220399	6
0	6970	11207.584659438398	5
0	6972	11217.907591245441	4
0	6974	11218.862488693062	3
0	6976	11220.638858720768	4
0	6979	11222.206415950095	3
0	6981	11224.993592373227	4
0	6984	11227.068886481063	5
0	6987	11245.301185836896	6
0	6990	11245.696817699811	5
0	6992	11246.930357712401	4
0	6994	11255.572483739591	5
0	6997	11259.149415304087	6
0	7000	11259.692471352044	5
0	7002	11263.464326475869	6
0	7005	11264.698546379126	5
0	7007	11265.437322536639	4
0	7009	11268.051776655154	3
0	7011	11270.194474138947	4
0	7014	11273.841647781954	3
0	7016	11275.815887235708	4
0	7019	11277.220166065409	5
0	7022	11288.668305610699	6
0	7025	11288.9238188997	5
0	7027	11290.62613712234	6
0	7030	11300.42154558642	5
0	7032	11306.113778232492	6
0	7035	11306.377908513513	7
0	7038	11307.353776927475	6
0	7040	11323.574458851821	7
0	7043	11324.44767190378	8
0	7045	11324.461812851301	7
0	7048	11325.670792610238	8
0	7050	11328.324251041151	9
0	7052	11330.269021142004	8
0	7055	11330.853262902202	9
0	7057	11337.3939803779	8
0	7060	11340.966953916724	7
0	7063	11344.232151480252	8
0	7065	11345.964155092749	9
0	7067	11356.87841982589	8
0	7070	11363.655363887954	9
0	7072	11369.950780367214	10
0	7074	11370.669146400614	9
0	7077	11378.694397794694	8
0	7080	11385.150279852412	7
0	7083	11385.924386108125	6
0	7085	11388.538145900847	7
0	7088	11393.627551294927	6
0	7090	11394.941908055565	5
0	7092	11395.06493760946	6
0	7095	11405.20505478178	7
0	7098	11410.544173227867	6
0	7100	11411.689935348122	7
0	7103	11421.508110535971	6
0	7105	11425.623668547564	5
0	7107	11431.344217605911	6
0	7110	11434.325758457294	5
0	7112	11437.456005825389	4
0	7114	11439.314500301998	5
0	7117	11444.917988124346	6
0	7120	11448.873815305646	7
0	7123	11453.734856728351	8
0	7125	11457.917554369989	7
0	7128	11469.53822826599	6
0	7130	11471.855984722197	7
0	7133	11480.836740822475	8
0	7135	11483.000277244469	9
0	7137	11493.767691893665	8
0	7140	11497.480826247984	9
0	7142	11497.519332091696	10
0	7144	11498.626396623555	11
0	7146	11503.840339589293	12
0	7148	11504.214582245112	13
0	7150	11508.63487991903	14
0	7152	11513.634461823255	13
0	7155	11518.806552849668	12
0	7158	11519.956197780582	11
0	7161	11522.412928523271	12
0	7163	11524.701311253006	11
0	7166	11526.475938676074	10
0	7169	11531.289205098442	9
0	7172	11532.696677711223	10
0	7174	11536.75621912593	11
0	7176	11538.735856209464	12
0	7178	11540.460688379332	11
0	7181	11543.382648989439	12
0	7183	11550.182992805149	13
0	7185	11551.148729130454	14
0	7187	11553.25921833225	13
0	7190	11557.333802953986	12
0	7193	11564.264957567284	11
0	7196	11565.225895128805	12
0	7198	11565.545176183833	11
0	7201	11569.718672733413	10
0	7204	11580.212895578095	11
0	7206	11589.268136524611	12
0	7208	11590.762994143712	13
0	7210	11591.819440440523	12
0	7213	11593.700581882539	13
0	7215	11593.85370663694	12
0	7218	11599.882977824545	11
0	7221	11604.664028812408	12
0	7223	11605.145582422474	13
0	7225	11606.649114014167	12
0	7228	11608.522405287028	13
0	7230	11609.514616290618	12
0	7233	11611.116918429701	11
0	7236	11614.957992082994	12
0	7238	11618.328708493299	11
0	7241	11620.45764825161	12
0	7243	11620.54198403308	11
0	7246	11621.111425217351	12
0	7248	11621.915652646772	11
0	7251	11628.726937283157	10
0	7254	11636.971002124959	9
0	7257	11641.421387107271	10
0	7259	11641.949134736047	11
0	7261	11647.77877377416	12
0	7263	11648.617575749474	11
0	7266	11648.675163811174	10
0	7269	11652.212160106345	9
0	7272	11656.203556862989	10
0	7274	11659.112458469941	9
0	7277	11659.359060098443	10
0	7279	11662.662679716443	11
0	7281	11664.839904718285	12
0	7283	11665.281665814625	13
0	7285	11672.500908889072	12
0	7288	11676.860459775992	11
0	7291	11681.01212548643	10
0	7294	11684.382638908942	9
0	7297	11688.155150431786	8
0	7300	11691.423384971144	7
0	7303	11696.475894671622	8
0	7305	11699.954197081488	9
0	7307	11700.206049214229	8
0	7310	11701.182155506141	7
0	7313	11701.953358190728	8
0	7315	11703.265395941621	9
0	7317	11708.481248817178	8
0	7320	11712.555607778902	7
0	7323	11713.437438769839	8
0	7325	11715.947952663429	7
0	7328	11722.728672809263	6
0	7330	11726.853359943833	7
0	7333	11732.164224804632	6
0	7335	11736.283112421031	7
0	7338	11741.937351976859	6
0	7340	11744.706749774785	5
0	7342	11749.32127470365	4
0	7344	11750.721549826312	3
0	7346	11753.285617001334	4
0	7349	11753.426670954444	3
0	7351	11753.789099816821	4
0	7354	11756.095644254655	5
0	7357	11760.339674432104	6
0	7360	11772.38181682183	7
0	7363	11773.580921006083	8
0	7365	11776.871667114719	7
0	7368	11777.394131181761	6
0	7370	11778.164972177129	7
0	7373	11784.324901055078	6
0	7375	11785.213651446446	5
0	7377	11790.185792835329	4
0	7379	11793.162082325541	5
0	7382	11793.353482570487	6
0	7385	11795.170607209643	5
0	7387	11796.313764927226	4
0	7389	11798.073658307731	5
0	7392	11800.121530222106	4
0	7394	11800.49056008984	5
0	7397	11805.69069045822	6
0	7400	11810.0821326835	5
0	7402	11815.88871647399	4
0	7404	11816.382060084351	5
0	7407	11817.817749269259	4
0	7409	11819.120982226284	5
0	7412	11821.52233693597	4
0	7414	11839.839368978736	3
0	7416	11840.332580816869	4
0	7419	11847.538862308612	5
0	7422	11852.761581099948	4
0	7424	11853.920276659366	3
0	7426	11862.024618418764	2
0	7428	11869.887860104584	3
0	7431	11872.319600749409	4
0	7434	11878.766042092142	3
0	7436	11879.927512490196	4
0	7439	11880.897004455442	5
0	7442	11886.490965073158	6
0	7445	11887.488957524635	7
0	7448	11894.616770897375	6
0	7450	11895.117211504009	5
0	7452	11910.063727597799	6
0	7455	11912.278142609948	5
0	7457	11916.10277179886	6
0	7460	11918.44649195184	7
0	7463	11920.470316717878	6
0	7465	11921.346284502689	7
0	7468	11921.657693453354	8
0	7470	11923.711812200133	9
0	7472	11935.711567298558	8
0	7475	11937.764819503725	7
0	7478	11937.968124164914	8
0	7480	11939.223665563267	9
0	7482	11948.692566163074	10
0	7484	11953.300834350436	9
0	7487	11967.695496854357	8
0	7490	11969.14090892091	9
0	7492	11969.304547179433	10
0	7494	11970.602950416827	9
0	7497	11976.556324239769	8
0	7500	11982.323385797636	7
0	7503	11985.532222569872	6
0	7505	11989.75707347529	5
0	7507	11998.790794612308	4
0	7509	12001.000448466772	3
0	7511	12002.589684475352	4
0	7514	12003.008348954098	3
0	7516	12007.13227158335	2
0	7518	12009.727497508881	3
0	7521	12010.458662593345	4
0	7524	12013.107221194496	5
0	7527	12014.684366918928	4
0	7529	12014.731398006095	5
0	7532	12018.835788467485	6
0	7535	12020.485920633838	7
0	7538	12030.698059020118	8
0	7540	12031.929645937272	9
0	7542	12033.656080177324	10
0	7544	12033.80653450539	9
0	7547	12034.855770423027	10
0	7549	12035.780611661558	11
0	7551	12045.913871768871	10
0	7554	12046.782861117656	9
0	7557	12046.950868636633	8
0	7560	12051.406005696724	9
0	7562	12060.215559599486	8
0	7565	12068.560488393779	7
0	7568	12069.142208978399	6
0	7570	12071.562976471166	5
0	7572	12074.085342461431	6
0	7575	12074.632623228767	7
0	7578	12075.430874418742	6
0	7580	12077.463223693057	5
0	7582	12086.764472476351	6
0	7585	12088.790231360899	5
0	7587	12095.398277140374	4
0	7589	12095.500698322548	5
0	7592	12106.342399108549	4
0	7594	12110.220709911959	5
0	7597	12111.873126097793	6
0	7600	12118.044128989105	5
0	7602	12120.95265650769	4
0	7604	12130.848866721428	3
0	7606	12131.579942849201	2
0	7608	12133.84964153542	1
0	7610	12134.004667967667	0
0	7612	12140.624033371801	1
0	7615	12141.445628591479	2
0	7618	12156.554087549961	1
0	7620	12168.695283867076	2
0	7623	12169.345370206171	1
0	7625	12177.000270858453	2
0	7628	12179.608266180205	3
0	7631	12184.298081237196	4
0	7634	12191.30285886211	5
0	7637	12192.878791023349	4
0	7639	12200.610236764507	3
0	7641	12201.981128441027	4
0	7644	12212.338839164405	5
0	7647	12212.399429872585	6
0	7650	12212.465739849367	5
0	7652	12212.912535788439	4
0	7654	12226.034951531598	5
0	7657	12231.512394441763	4
0	7659	12235.702256984497	5
0	7662	12237.122955110314	6
0	7665	12257.123408515798	7
0	7668	12261.594803010981	8
0	7670	12264.43736022403	7
0	7673	12264.839353734751	8
0	7675	12265.421706497364	9
0	7677	12271.99790600142	10
0	7679	12272.264736829333	9
0	7682	12273.366558112651	8
0	7685	12287.052625525036	7
0	7688	12290.351001148373	8
0	7690	12290.515033130812	7
0	7693	12298.097210303009	8
0	7695	12301.222372750707	7
0	7698	12307.666627797275	6
0	7700	12317.932704806213	5
0	7702	12321.491109854024	4
0	7704	12323.51611395841	5
0	7707	12334.374872791065	4
0	7709	12339.336586636745	3
0	7711	12342.894046192617	4
0	7714	12343.940602817437	3
0	7716	12352.490952579168	2
0	7718	12363.658818509568	3
0	7721	12370.221534909721	2
0	7723	12371.638124709101	3
0	7726	12403.555318114596	4
0	7729	12403.666024735043	3
0	7731	12405.322130979883	4
0	7734	12409.663359024522	5
0	7737	12409.93139849076	6
0	7740	12410.267425170723	5
0	7742	12419.784316362768	4
0	7744	12428.345082095152	5
0	7747	12432.352173106314	6
0	7750	12432.805844238737	7
0	7753	12435.11656956262	6
0	7755	12441.46864666731	5
0	7757	12443.988209029663	4
0	7759	12445.059279132404	5
0	7762	12447.980700071161	4
0	7764	12459.884236704641	5
0	7767	12465.854897832527	4
0	7769	12469.015872585774	5
0	7772	12469.166358526894	4
0	7774	12472.424788624276	3
0	7776	12473.655334742231	4
0	7779	12476.750583180939	5
0	7782	12479.097274947232	6
0	7785	12479.204622526687	5
0	7787	12480.83838795313	4
0	7789	12485.851453755053	3
0	7791	12492.840973228852	2
0	7793	12503.966094459538	3
0	7796	12507.913905156898	4
0	7799	12516.265724633789	3
0	7801	12516.539400868142	4
0	7804	12519.73196639124	5
0	7807	12524.257898216296	6
0	7810	12528.967991823291	5
0	7812	12531.811392731594	4
0	7814	12543.148484377618	3
0	7816	12547.401929802575	4
0	7819	12548.268892863912	3
0	7821	12549.054234777866	4
0	7824	12555.188395685955	3
0	7826	12567.65829342037	2
0	7828	12568.488995717607	3
0	7831	12571.444868202505	4
0	7834	12582.308137338917	3
0	7836	12594.074585897376	2
0	7838	12601.992498145472	1
0	7840	12605.925083701636	2
0	7843	12608.810267363943	3
0	7846	12619.641458303255	2
0	7848	12620.081238826893	3
0	7851	12621.59061489236	2
0	7853	12629.32089376612	3
0	7856	12630.674011574019	2
0	7858	12654.080711878739	3
0	7861	12678.496374967258	2
0	7863	12681.58348301185	1
0	7865	12686.228179845222	2
0	7868	12690.456852891486	1
0	7870	12700.41862264912	0
0	7872	12702.85502951518	1
0	7875	12702.909395088126	2
0	7878	12705.501673653545	3
0	7881	12711.770943007381	2
0	7883	12722.410495639113	3
0	7886	12726.590126239533	4
0	7889	12734.890864331215	3
0	7891	12739.912383115615	4
0	7894	12741.348747879292	3
0	7896	12741.637907208837	4
0	7899	12747.604497751751	3
0	7901	12752.748959859572	4
0	7904	12765.682653966796	5
0	7907	12766.00824945062	4
0	7909	12766.802668947908	3
0	7911	12771.177289194746	4
0	7914	12773.058281349351	3
0	7916	12775.313846324782	4
0	7919	12778.951917195955	5
[...]
1	7050	11328.324251041151	2
1	7052	11330.269021142004	1
1	7055	11330.853262902202	2
1	7057	11337.3939803779	1
1	7060	11340.966953916724	0
1	7063	11344.232151480252	1
1	7065	11345.964155092749	2
1	7067	11356.87841982589	1
1	7070	11363.655363887954	2
1	7072	11369.950780367214	3
1	7074	11370.669146400614	2
1	7077	11378.694397794694	1
1	7080	11385.150279852412	0
1	7083	11385.924386108125	0
1	7085	11388.538145900847	0
1	7088	11393.627551294927	0
1	7090	11394.941908055565	0
1	7092	11395.06493760946	0
1	7095	11405.20505478178	0
1	7098	11410.544173227867	0
1	7100	11411.689935348122	0
1	7103	11421.508110535971	0
1	7105	11425.623668547564	0
1	7107	11431.344217605911	0
1	7110	11434.325758457294	0
1	7112	11437.456005825389	0
1	7114	11439.314500301998	0
1	7117	11444.917988124346	0
1	7120	11448.873815305646	0
1	7123	11453.734856728351	1
1	7125	11457.917554369989	0
1	7128	11469.53822826599	0
1	7130	11471.855984722197	0
1	7133	11480.836740822475	1
1	7135	11483.000277244469	2
1	7137	11493.767691893665	1
1	7140	11497.480826247984	2
1	7142	11497.519332091696	3
1	7144	11498.626396623555	4
1	7146	11503.840339589293	5
1	7148	11504.214582245112	6
1	7150	11508.63487991903	7
1	7152	11513.634461823255	6
1	7155	11518.806552849668	5
1	7158	11519.956197780582	4
1	7161	11522.412928523271	5
1	7163	11524.701311253006	4
1	7166	11526.475938676074	3
1	7169	11531.289205098442	2
1	7172	11532.696677711223	3
1	7174	11536.75621912593	4
1	7176	11538.735856209464	5
1	7178	11540.460688379332	4
1	7181	11543.382648989439	5
1	7183	11550.182992805149	6
1	7185	11551.148729130454	7
1	7187	11553.25921833225	6
1	7190	11557.333802953986	5
1	7193	11564.264957567284	4
1	7196	11565.225895128805	5
1	7198	11565.545176183833	4
1	7201	11569.718672733413	3
1	7204	11580.212895578095	4
1	7206	11589.268136524611	5
1	7208	11590.762994143712	6
1	7210	11591.819440440523	5
1	7213	11593.700581882539	6
1	7215	11593.85370663694	5
1	7218	11599.882977824545	4
1	7221	11604.664028812408	5
1	7223	11605.145582422474	6
1	7225	11606.649114014167	5
1	7228	11608.522405287028	6
1	7230	11609.514616290618	5
1	7233	11611.116918429701	4
1	7236	11614.957992082994	5
1	7238	11618.328708493299	4
1	7241	11620.45764825161	5
1	7243	11620.54198403308	4
1	7246	11621.111425217351	5
1	7248	11621.915652646772	4
1	7251	11628.726937283157	3
1	7254	11636.971002124959	2
1	7257	11641.421387107271	3
1	7259	11641.949134736047	4
1	7261	11647.77877377416	5
1	7263	11648.617575749474	4
1	7266	11648.675163811174	3
1	7269	11652.212160106345	2
1	7272	11656.203556862989	3
1	7274	11659.112458469941	2
1	7277	11659.359060098443	3
1	7279	11662.662679716443	4
1	7281	11664.839904718285	5
1	7283	11665.281665814625	6
1	7285	11672.500908889072	5
1	7288	11676.860459775992	4
1	7291	11681.01212548643	3
1	7294	11684.382638908942	2
1	7297	11688.155150431786	1
1	7300	11691.423384971144	0
1	7303	11696.475894671622	1
1	7305	11699.954197081488	2
1	7307	11700.206049214229	1
1	7310	11701.182155506141	0
1	7313	11701.953358190728	1
1	7315	11703.265395941621	2
1	7317	11708.481248817178	1
1	7320	11712.555607778902	0
1	7323	11713.437438769839	1
1	7325	11715.947952663429	0
1	7328	11722.728672809263	0
1	7330	11726.853359943833	0
1	7333	11732.164224804632	0
1	7335	11736.283112421031	0
1	7338	11741.937351976859	0
1	7340	11744.706749774785	0
1	7342	11749.32127470365	0
1	7344	11750.721549826312	0
1	7346	11753.285617001334	0
1	7349	11753.426670954444	0
1	7351	11753.789099816821	0
1	7354	11756.095644254655	0
1	7357	11760.339674432104	0
1	7360	11772.38181682183	0
1	7363	11773.580921006083	1
1	7365	11776.871667114719	0
1	7368	11777.394131181761	0
1	7370	11778.164972177129	0
1	7373	11784.324901055078	0
1	7375	11785.213651446446	0
1	7377	11790.185792835329	0
1	7379	11793.162082325541	0
1	7382	11793.353482570487	0
1	7385	11795.170607209643	0
1	7387	11796.313764927226	0
1	7389	11798.073658307731	0
1	7392	11800.121530222106	0
1	7394	11800.49056008984	0
1	7397	11805.69069045822	0
1	7400	11810.0821326835	0
1	7402	11815.88871647399	0
1	7404	11816.382060084351	0
1	7407	11817.817749269259	0
1	7409	11819.120982226284	0
1	7412	11821.52233693597	0
1	7414	11839.839368978736	0
1	7416	11840.332580816869	0
1	7419	11847.538862308612	0
1	7422	11852.761581099948	0
1	7424	11853.920276659366	0
1	7426	11862.024618418764	0
1	7428	11869.887860104584	0
1	7431	11872.319600749409	0
1	7434	11878.766042092142	0
1	7436	11879.927512490196	0
1	7439	11880.897004455442	0
1	7442	11886.490965073158	0
1	7445	11887.488957524635	0
1	7448	11894.616770897375	0
1	7450	11895.117211504009	0
1	7452	11910.063727597799	0
1	7455	11912.278142609948	0
1	7457	11916.10277179886	0
1	7460	11918.44649195184	0
1	7463	11920.470316717878	0
1	7465	11921.346284502689	0
1	7468	11921.657693453354	1
1	7470	11923.711812200133	2
1	7472	11935.711567298558	1
1	7475	11937.764819503725	0
1	7478	11937.968124164914	1
1	7480	11939.223665563267	2
1	7482	11948.692566163074	3
1	7484	11953.300834350436	2
1	7487	11967.695496854357	1
1	7490	11969.14090892091	2
1	7492	11969.304547179433	3
1	7494	11970.602950416827	2
1	7497	11976.556324239769	1
1	7500	11982.323385797636	0
1	7503	11985.532222569872	0
1	7505	11989.75707347529	0
1	7507	11998.790794612308	0
1	7509	12001.000448466772	0
1	7511	12002.589684475352	0
1	7514	12003.008348954098	0
1	7516	12007.13227158335	0
1	7518	12009.727497508881	0
1	7521	12010.458662593345	0
1	7524	12013.107221194496	0
1	7527	12014.684366918928	0
1	7529	12014.731398006095	0
1	7532	12018.835788467485	0
1	7535	12020.485920633838	0
1	7538	12030.698059020118	1
1	7540	12031.929645937272	2
1	7542	12033.656080177324	3
1	7544	12033.80653450539	2
1	7547	12034.855770423027	3
1	7549	12035.780611661558	4
1	7551	12045.913871768871	3
1	7554	12046.782861117656	2
1	7557	12046.950868636633	1
1	7560	12051.406005696724	2
1	7562	12060.215559599486	1
1	7565	12068.560488393779	0
1	7568	12069.142208978399	0
1	7570	12071.562976471166	0
1	7572	12074.085342461431	0
1	7575	12074.632623228767	0
1	7578	12075.430874418742	0
1	7580	12077.463223693057	0
1	7582	12086.764472476351	0
1	7585	12088.790231360899	0
1	7587	12095.398277140374	0
1	7589	12095.500698322548	0
1	7592	12106.342399108549	0
1	7594	12110.220709911959	0
1	7597	12111.873126097793	0
1	7600	12118.044128989105	0
1	7602	12120.95265650769	0
1	7604	12130.848866721428	0
1	7606	12131.579942849201	0
1	7608	12133.84964153542	0
1	7610	12134.004667967667	0
1	7612	12140.624033371801	0
1	7615	12141.445628591479	0
1	7618	12156.554087549961	0
1	7620	12168.695283867076	0
1	7623	12169.345370206171	0
1	7625	12177.000270858453	0
1	7628	12179.608266180205	0
1	7631	12184.298081237196	0
1	7634	12191.30285886211	0
1	7637	12192.878791023349	0
1	7639	12200.610236764507	0
1	7641	12201.981128441027	0
1	7644	12212.338839164405	0
1	7647	12212.399429872585	0
1	7650	12212.465739849367	0
1	7652	12212.912535788439	0
1	7654	12226.034951531598	0
1	7657	12231.512394441763	0
1	7659	12235.702256984497	0
1	7662	12237.122955110314	0
1	7665	12257.123408515798	0
1	7668	12261.594803010981	1
1	7670	12264.43736022403	0
1	7673	12264.839353734751	1
1	7675	12265.421706497364	2
1	7677	12271.99790600142	3
1	7679	12272.264736829333	2
1	7682	12273.366558112651	1
1	7685	12287.052625525036	0
1	7688	12290.351001148373	1
1	7690	12290.515033130812	0
1	7693	12298.097210303009	1
1	7695	12301.222372750707	0
1	7698	12307.666627797275	0
1	7700	12317.932704806213	0
1	7702	12321.491109854024	0
1	7704	12323.51611395841	0
1	7707	12334.374872791065	0
1	7709	12339.336586636745	0
1	7711	12342.894046192617	0
1	7714	12343.940602817437	0
1	7716	12352.490952579168	0
1	7718	12363.658818509568	0
1	7721	12370.221534909721	0
1	7723	12371.638124709101	0
1	7726	12403.555318114596	0
1	7729	12403.666024735043	0
1	7731	12405.322130979883	0
1	7734	12409.663359024522	0
1	7737	12409.93139849076	0
1	7740	12410.267425170723	0
1	7742	12419.784316362768	0
1	7744	12428.345082095152	0
1	7747	12432.352173106314	0
1	7750	12432.805844238737	0
1	7753	12435.11656956262	0
1	7755	12441.46864666731	0
1	7757	12443.988209029663	0
1	7759	12445.059279132404	0
1	7762	12447.980700071161	0
1	7764	12459.884236704641	0
1	7767	12465.854897832527	0
1	7769	12469.015872585774	0
1	7772	12469.166358526894	0
1	7774	12472.424788624276	0
1	7776	12473.655334742231	0
1	7779	12476.750583180939	0
1	7782	12479.097274947232	0
1	7785	12479.204622526687	0
1	7787	12480.83838795313	0
1	7789	12485.851453755053	0
1	7791	12492.840973228852	0
1	7793	12503.966094459538	0
1	7796	12507.913905156898	0
1	7799	12516.265724633789	0
1	7801	12516.539400868142	0
1	7804	12519.73196639124	0
1	7807	12524.257898216296	0
1	7810	12528.967991823291	0
1	7812	12531.811392731594	0
1	7814	12543.148484377618	0
1	7816	12547.401929802575	0
1	7819	12548.268892863912	0
1	7821	12549.054234777866	0
1	7824	12555.188395685955	0
1	7826	12567.65829342037	0
1	7828	12568.488995717607	0
1	7831	12571.444868202505	0
1	7834	12582.308137338917	0
1	7836	12594.074585897376	0
1	7838	12601.992498145472	0
1	7840	12605.925083701636	0
1	7843	12608.810267363943	0
1	7846	12619.641458303255	0
1	7848	12620.081238826893	0
1	7851	12621.59061489236	0
1	7853	12629.32089376612	0
1	7856	12630.674011574019	0
1	7858	12654.080711878739	0
1	7861	12678.496374967258	0
1	7863	12681.58348301185	0
1	7865	12686.228179845222	0
1	7868	12690.456852891486	0
1	7870	12700.41862264912	0
1	7872	12702.85502951518	0
1	7875	12702.909395088126	0
1	7878	12705.501673653545	0
1	7881	12711.770943007381	0
1	7883	12722.410495639113	0
1	7886	12726.590126239533	0
1	7889	12734.890864331215	0
1	7891	12739.912383115615	0
1	7894	12741.348747879292	0
1	7896	12741.637907208837	0
1	7899	12747.604497751751	0
1	7901	12752.748959859572	0
1	7904	12765.682653966796	0
1	7907	12766.00824945062	0
1	7909	12766.802668947908	0
1	7911	12771.177289194746	0
1	7914	12773.058281349351	0
1	7916	12775.313846324782	0
1	7919	12778.951917195955	0
1	7922	12779.334049549066	0
1	7924	12779.553145240958	0
1	7927	12780.904661293979	0
1	7929	12781.497379848915	0
1	7932	12784.823868116636	0
1	7935	12795.373432750784	0
1	7937	12799.270002636937	0
1	7940	12810.851488394214	0
1	7943	12813.394331029937	0
1	7945	12817.595235029104	0
1	7947	12818.088022927254	0
1	7950	12821.882725996033	0
1	7953	12822.365181811112	0
1	7955	12824.268597473572	0
1	7958	12827.211610211623	0
1	7960	12828.886791317787	0
1	7963	12832.314391475403	0
1	7965	12841.041439829047	0
1	7968	12841.925928250085	0
1	7970	12847.306821067123	0
1	7972	12853.910638414996	0
1	7974	12857.588705010718	0
1	7977	12858.091887264195	0
1	7979	12858.12844966384	0
1	7982	12858.742698739653	0
1	7984	12859.182212075967	0
1	7986	12863.713088451075	0
1	7989	12864.172549187975	0
1	7992	12868.587861877693	0
1	7995	12872.665016319845	0
1	7998	12879.145940683047	0
1	8000	12883.131477349112	0
1	8002	12885.628689019112	0
1	8004	12899.963793220213	0
1	8006	12901.753094538672	0
1	8009	12903.7880541023	0
1	8012	12907.683081483562	0
1	8014	12908.034639631315	0
1	8017	12909.488435705948	0
1	8019	12915.614475385642	0
1	8022	12916.27576459863	0
1	8024	12921.051114658725	0
1	8026	12924.118257313061	0
1	8028	12946.0861812177	0
1	8031	12950.833472953845	0
1	8034	12966.908497811873	0
1	8037	12979.804333113116	0
1	8040	12982.920955575004	0
1	8042	12985.694526341919	0
1	8044	12987.853835169204	0
1	8046	12999.63744041417	0
1	8048	13002.178666527259	0
1	8050	13003.628523353996	0
1	8053	13005.207174026306	0
1	8055	13008.404357934516	0
1	8057	13009.664490654099	0
1	8060	13010.916588445545	0
1	8063	13024.390477478248	0
1	8065	13026.204574473129	0
1	8067	13026.264586842199	0
1	8070	13036.006176444548	0
1	8073	13046.452978512391	0
1	8075	13046.966370776575	0
1	8078	13048.522686290599	0
1	8081	13048.840687589192	0
1	8083	13051.118586769953	0
1	8086	13079.989883431326	0
1	8089	13080.462207797614	0
1	8091	13081.242976290802	0
1	8094	13087.335078293736	0
1	8097	13088.178160326252	0
1	8100	13107.617277058988	0
1	8102	13108.119766022664	0
1	8104	13117.377342530871	0
1	8106	13129.683646104101	0
1	8109	13131.316280002259	0
1	8112	13132.232988555502	0
1	8115	13146.920172029541	0
1	8117	13147.237256650093	0
1	8120	13147.975879138513	0
1	8123	13148.233051165086	0
1	8125	13150.069312533942	0
1	8127	13151.569441057393	0
1	8130	13152.519647103942	0
1	8133	13155.367411987368	0
1	8135	13158.875098439628	0
1	8138	13159.016117324604	0
1	8140	13162.719287123672	0
1	8143	13167.240620049038	1
1	8145	13170.886540730497	0
1	8148	13171.035332195857	0
1	8150	13173.118705615498	0
1	8153	13178.326933840316	0
1	8155	13189.939869303791	0
1	8157	13191.385707071371	0
1	8159	13201.025365531196	0
1	8162	13201.040407768329	0
1	8165	13206.788332794943	0
1	8168	13208.019250065459	0
1	8170	13208.694293513326	0
1	8172	13210.305472809318	0
1	8174	13210.880015208334	0
1	8177	13211.391050334733	0
1	8179	13215.777969768105	0
1	8181	13219.185070202219	0
1	8183	13222.252482181564	0
1	8185	13222.448074995398	0
1	8188	13224.226290550779	0
1	8191	13230.877803898425	0
1	8194	13231.055157504744	0
1	8196	13233.721039678153	0
1	8199	13239.048634822068	0
1	8202	13245.140204586578	0
1	8205	13253.436280064649	0
1	8207	13256.472968274917	0
1	8210	13258.758103056618	0
1	8212	13259.848537296455	0
1	8214	13259.955179296671	0
1	8216	13265.676420165208	0
1	8218	13276.072036993435	0
1	8220	13289.726363598594	0
1	8223	13299.956961939353	0
1	8225	13324.711119979484	0
1	8228	13324.969066872122	0
1	8231	13331.888840272984	0
1	8234	13336.291872338643	0
1	8237	13339.830454948506	0
1	8239	13351.175780406271	0
1	8242	13354.196979623059	0
1	8245	13354.211154294395	0
1	8247	13356.346091756161	0
1	8250	13367.59492310077	0
1	8253	13369.953663674918	1
1	8255	13378.276662208013	2
1	8257	13384.380809962198	1
1	8260	13389.878371087428	2
1	8262	13402.133799083504	1
1	8265	13419.267301620237	0
1	8268	13420.339282349745	1
1	8270	13424.056530948217	2
1	8272	13426.19140188605	3
1	8274	13427.935536712947	4
1	8276	13438.875315437774	5
1	8278	13439.687197947968	6
1	8280	13441.790327264116	7
1	8282	13445.765736993492	6
1	8285	13452.079135049041	7
1	8287	13461.119731094505	6
1	8290	13463.413395214443	5
1	8293	13465.657969383035	4
1	8296	13466.061725736352	3
1	8299	13466.112341566733	4
1	8301	13471.791874262874	3
1	8304	13474.75804611875	2
1	8307	13489.049465057002	1
1	8310	13489.808241702786	0
1	8313	13494.515252586652	1
1	8315	13500.807444160641	0
1	8318	13502.130045775304	1
1	8320	13503.812967698243	0
1	8323	13513.009491816604	0
1	8325	13517.648664756718	0
1	8327	13519.203327187539	0
1	8329	13528.771460220075	0
1	8331	13539.448730472749	0
1	8334	13545.25429863412	0
1	8337	13545.646351224297	0
1	8340	13548.248230065674	0
1	8343	13558.089744387428	1
1	8345	13561.125896380619	2
1	8347	13563.910958601315	3
1	8349	13567.653027369622	4
1	8351	13569.538991073844	3
1	8354	13573.147570141227	4
1	8356	13579.834428856347	5
1	8358	13579.872919613475	4
1	8361	13581.609264356144	3
1	8364	13586.445874479286	4
1	8366	13593.852670515	5
1	8368	13593.963394684209	6
1	8370	13594.431597970011	5
1	8373	13600.348107783071	6
1	8375	13606.693495191262	5
1	8378	13608.823457851889	6
1	8380	13611.681639072132	5
1	8383	13619.238212414872	4
1	8386	13623.043041935018	3
1	8389	13623.156364992999	4
1	8391	13624.447400568775	3
1	8394	13626.04643261115	4
1	8396	13629.576000717394	3
1	8399	13629.72333070016	2
1	8402	13631.648915149281	3
1	8404	13637.755918852775	4
1	8406	13639.027350781755	3
1	8409	13644.580829297639	2
1	8412	13644.862615264828	1
1	8415	13644.984688064218	2
1	8417	13648.418321726207	1
1	8420	13662.526519765407	2
1	8422	13664.682796355133	1
1	8425	13666.890526753293	0
1	8428	13667.292103309422	0
1	8430	13668.304718058517	0
1	8432	13668.881872741873	0
1	8435	13678.009054957191	0
1	8437	13685.247296912668	0
1	8440	13689.786622319178	0
1	8442	13691.436179062415	0
1	8444	13699.963670609737	0
1	8447	13701.112920426994	0
1	8450	13705.441586708133	0
1	8453	13711.933508119043	0
1	8455	13714.289913930051	0
1	8458	13715.588134528807	0
1	8460	13716.058298066712	0
1	8463	13716.111956306986	0
1	8465	13717.073914469298	0
1	8467	13724.430959058363	0
1	8470	13726.586031451105	0
1	8472	13728.27016237071	0
1	8474	13732.650636916788	0
1	8476	13733.330872766555	0
1	8478	13734.771495293564	0
1	8481	13740.016006185853	0
1	8484	13748.149877544181	0
1	8487	13751.141896898789	0
1	8490	13757.52832400379	0
1	8493	13770.058938049233	0
1	8495	13771.365383109771	0
1	8497	13773.29323157775	0
1	8499	13783.119016874586	0
1	8501	13785.247279136598	0
1	8503	13787.312527294653	0
1	8506	13792.284134866364	0
1	8508	13801.322438347912	0
1	8511	13802.364241342464	0
1	8513	13805.156044794569	0
1	8516	13805.963894495796	0
1	8519	13806.049860487766	0
1	8522	13806.111116913624	0
1	8525	13809.914117291117	0
1	8527	13820.551114184638	0
1	8530	13822.168590260803	0
1	8533	13822.561165677835	0
1	8535	13823.409036013911	0
1	8537	13833.2261737515	0
1	8540	13836.494296382866	0
1	8542	13839.573669339269	0
1	8544	13846.9461508981	0
1	8546	13848.315292135711	0
1	8549	13855.117647026203	0
1	8551	13859.988122099135	0
1	8553	13873.207861964625	0
1	8555	13881.285268563639	0
1	8558	13888.251698159964	0
1	8560	13903.180442436707	0
1	8563	13906.810541007625	0
1	8566	13908.178497577539	0
1	8569	13909.247162991653	0
1	8571	13915.432393014085	0
1	8573	13919.048116020355	0
1	8576	13939.582883888757	0
1	8578	13940.243176875414	0
1	8581	13943.651477888214	0
1	8584	13949.36084374921	0
1	8586	13953.495189152004	0
1	8589	13962.449022511772	0
1	8591	13962.507212317128	0
1	8593	13970.028006418162	0
1	8596	13974.931370142613	0
1	8598	13979.537261091048	0
1	8601	13984.51025570512	0
1	8604	13987.231489518319	0
1	8606	13989.339954135611	0
1	8608	14009.12704659758	0
1	8610	14009.164535371441	0
1	8612	14018.924964841625	0
1	8615	14022.841578276865	0
1	8618	14023.222733172351	0
1	8621	14024.61563900135	0
1	8624	14032.647873623508	0
1	8626	14037.143228883147	0
1	8628	14040.789383767508	0
1	8631	14043.3766956524	0
1	8634	14045.533361919973	0
1	8636	14068.766755337841	0
1	8639	14073.658621813198	0
1	8642	14073.872635385664	0
1	8644	14079.096596894332	0
1	8647	14080.720922901908	0
1	8650	14084.671590242604	0
1	8653	14085.742378181642	0
1	8655	14088.024018174827	0
1	8657	14107.828774273067	0
1	8659	14108.154980858101	0
1	8661	14118.439408894112	0
1	8663	14121.540529282644	0
1	8666	14122.20428716392	0
1	8668	14133.48495458933	0
1	8671	14133.915872380493	0
1	8674	14141.396059064619	0
1	8676	14147.779721687122	0
1	8678	14150.121264149968	0
1	8681	14154.249021331383	0
1	8683	14154.453000671131	0
1	8686	14163.458100316179	0
1	8689	14164.425400386258	0
1	8691	14168.327417535554	0
1	8693	14186.875443961484	0
1	8696	14187.496395214632	0
1	8699	14194.571749668856	0
1	8702	14201.892836392007	0
1	8705	14202.910075321223	0
1	8708	14205.969221156004	1
1	8710	14207.385924161812	2
1	8712	14212.310967074602	3
1	8714	14216.435401447101	2
1	8717	14222.923565699171	3
1	8719	14224.731070750713	2
1	8722	14229.747857984373	1
1	8725	14231.242105002827	2
1	8727	14236.407166713615	3
1	8729	14242.339078437317	2
1	8732	14246.734653145641	3
1	8734	14248.683890656644	2
1	8737	14262.811542425777	1
1	8740	14263.042062507589	2
1	8742	14264.438644769645	3
1	8744	14265.127018565957	2
1	8747	14269.064346773884	3
1	8749	14269.796339563063	2
1	8752	14271.298770316752	3
1	8754	14272.251948377526	4
1	8756	14272.647655306844	3
1	8759	14276.940921971884	4
1	8761	14280.752230277421	5
1	8763	14282.225500756841	4
1	8766	14284.894155826056	3
1	8769	14285.122289012215	4
1	8771	14291.363518427609	3
1	8774	14295.050781873371	2
1	8777	14299.436192006624	1
1	8780	14300.852621071094	0
1	8783	14303.04838900172	0
1	8785	14303.077658181003	0
1	8787	14303.668135589655	0
1	8790	14313.18662012797	0
1	8793	14316.729756903449	0
1	8795	14319.418098959575	0
1	8798	14320.655766665475	0
1	8800	14334.274973335014	0
1	8802	14337.705374003644	0
1	8805	14338.743313706405	0
1	8808	14345.329343322298	1
1	8810	14356.250250496579	2
1	8812	14361.799986951931	1
1	8815	14362.23971619771	0
1	8818	14363.183293540452	0
1	8820	14363.720422261532	0
1	8822	14376.514876538118	0
1	8824	14377.796530414038	0
1	8827	14378.428401353236	0
1	8830	14381.776622202106	0
1	8832	14383.816135603483	0
1	8835	14385.085574366283	0
1	8838	14391.430353369287	0
1	8840	14391.460269195508	0

