version 2
run General-19-20191211-23:49:40-6376
attr configname General
attr datetime 20191211-23:49:40
attr experiment General
attr inifile omnetpp.ini
attr iterationvars ""
attr iterationvarsf ""
attr measurement ""
attr network Carrefour
attr processid 6376
attr repetition 19
attr replication #19
attr resultdir results
attr runnumber 19
attr seedset 19
param **.tillsNumber 7
param **.delta 0s
param **.policy 1
param **.capacity 0.3
param **.meanInterArrivalTime 8s
param **.meanItemsInACart 12
param **.interArrivalDistribution 0
param **.itemsInCartDistribution 0

vector 0 Carrefour.decider stats_numCustomers:vector ETV
attr "" ""
attr source numCustomers
vector 1 Carrefour.decider stats_numCustomersQueue:vector ETV
attr "" ""
attr source numCustomersQueue
0	733	1201.444422634765	8
0	735	1205.790160763216	7
0	738	1206.726596412846	6
0	740	1229.959463709861	5
0	742	1231.375121846995	4
0	744	1231.992745497727	5
0	747	1240.20551204697	6
0	750	1242.025468141962	7
0	753	1245.358142369313	6
0	755	1248.307050883233	7
0	758	1253.499697896755	6
0	760	1255.072285630442	5
0	762	1255.864951702283	4
0	764	1256.011288444322	3
0	766	1256.738276957256	2
0	768	1258.390619062839	3
0	771	1274.837319995311	2
0	773	1285.826119446596	3
0	776	1293.833843800255	4
0	779	1297.642531929556	3
0	781	1305.336911328715	2
0	783	1306.240155097568	3
0	786	1306.796581158788	4
0	789	1314.448193282174	5
0	792	1318.581353862495	4
0	794	1319.066432676984	3
0	796	1319.54162444891	4
0	799	1322.048959565711	3
0	801	1323.853454127596	4
0	804	1324.516226620332	5
0	807	1335.469164019552	6
0	810	1335.719548773818	7
0	813	1335.98537170216	8
0	815	1337.244657100785	9
0	817	1337.405083182686	10
0	819	1339.102774197002	9
0	822	1340.06288680091	10
0	824	1341.487808884463	9
0	827	1346.345444908196	8
0	830	1350.74993443563	9
0	832	1353.94093837739	10
0	834	1359.747901690404	11
0	836	1368.801235010064	12
0	838	1371.626448804826	13
0	840	1373.828586783388	12
0	843	1375.310941852008	11
0	846	1377.817177718385	12
0	848	1382.639612894659	11
0	851	1384.07856959381	12
0	853	1386.988367892609	11
0	856	1387.125418014535	12
0	858	1391.399428858883	11
0	861	1394.973091828847	10
0	864	1395.91527943097	9
0	867	1400.057184372697	8
0	870	1402.282450777879	9
0	872	1406.165203889943	8
0	875	1410.692498208986	9
0	877	1414.264277455824	10
0	879	1416.171533160485	9
0	882	1416.734894129286	8
0	885	1424.04578139887	9
0	887	1427.13860036886	8
0	890	1438.199193602849	7
0	893	1440.583748414341	8
0	895	1441.598029291878	9
0	897	1449.185976333857	8
0	900	1457.053746707881	9
0	902	1457.865447768994	8
0	905	1459.618297646746	7
0	908	1461.121119288782	8
0	910	1463.132737057008	9
0	912	1465.410702262869	8
0	915	1467.798988493484	7
0	918	1474.514517526468	8
0	920	1478.417406439557	7
0	923	1480.274558514144	6
0	925	1482.924997941515	7
0	928	1488.564560508237	6
0	930	1491.580013612432	5
0	932	1492.201469042754	6
0	935	1492.664912134517	5
0	937	1494.873764331549	4
0	939	1516.104774082269	5
0	942	1518.555401071932	4
0	944	1528.993262711533	5
0	947	1530.141720521889	4
0	949	1538.032573724864	5
0	952	1538.555946426186	4
0	954	1540.611075410067	5
0	957	1546.319542412131	6
0	960	1552.205919643542	5
0	962	1559.47476657911	6
0	965	1561.212664229052	5
0	967	1561.769059948719	6
0	970	1562.134085042734	5
0	972	1562.34203457747	6
0	975	1563.016282287284	5
0	977	1563.616927889049	6
0	980	1567.77870119127	5
0	982	1578.64538537031	4
0	984	1592.05922823081	5
0	987	1596.248520360644	6
0	990	1596.261652204215	5
0	992	1598.262298569399	6
0	995	1601.154117339816	5
0	997	1614.516123467163	4
0	999	1615.039848003691	3
0	1001	1616.128034176813	4
0	1004	1625.189453875446	5
0	1007	1627.345951490901	6
0	1010	1628.315368248918	5
0	1012	1628.998251714892	4
0	1014	1630.1235016477	5
0	1017	1632.016151670577	6
0	1020	1635.070973940755	7
0	1023	1638.593313815078	8
0	1025	1639.125179324361	9
0	1027	1641.0763349081	8
0	1030	1644.073148639085	7
0	1033	1644.611923343374	6
0	1035	1645.007545068828	7
0	1038	1652.248739834993	6
0	1040	1659.336535681918	7
0	1043	1659.686622532059	6
0	1045	1664.329742047209	5
0	1047	1666.36676430464	6
0	1050	1671.924681092448	5
0	1052	1676.993780836341	4
0	1054	1677.775358182616	5
0	1057	1679.113060296596	4
0	1059	1685.354743071941	5
0	1062	1686.013652580455	4
0	1064	1693.640334773331	5
0	1067	1695.655140180907	4
0	1069	1695.971974718504	3
0	1071	1696.440521506325	4
0	1074	1703.527105759202	3
0	1076	1703.616575690495	2
0	1078	1708.480276607612	1
0	1080	1711.167188457459	2
0	1083	1712.039116308923	3
0	1086	1713.088179839856	4
0	1089	1720.466167048156	3
0	1091	1729.407238050383	2
0	1093	1736.007406652535	1
0	1095	1746.869205232253	0
0	1097	1768.12337142368	1
0	1100	1778.790758679112	0
0	1102	1792.81566792503	1
0	1105	1793.117124071254	2
0	1108	1813.643894757012	3
0	1111	1819.54211946395	4
0	1114	1820.968850012743	3
0	1116	1821.155423769896	2
0	1118	1827.814088707496	3
0	1121	1830.978852485302	4
0	1124	1834.747998703038	3
0	1126	1836.389796001856	4
0	1129	1840.873417221332	3
0	1131	1844.898357860365	4
0	1134	1846.729979117523	3
0	1136	1847.06766577295	4
0	1139	1848.373296152421	5
0	1142	1848.982664268371	4
0	1144	1854.192681120604	3
0	1146	1863.59972761852	4
0	1149	1878.887158610777	3
0	1151	1883.95034830584	2
0	1153	1888.320535033029	3
0	1156	1892.841561002838	2
0	1158	1895.469478108369	1
0	1160	1901.69881118358	2
0	1163	1902.439818903938	3
0	1166	1914.721899103241	4
0	1169	1916.808786050556	3
0	1171	1917.73266637037	2
0	1173	1928.113658030493	3
0	1176	1928.157586589209	2
0	1178	1947.344883967755	3
0	1181	1953.340553756405	4
0	1184	1967.36841866305	3
0	1186	1972.06339608689	2
0	1188	1975.63304916771	3
0	1191	1981.372433590922	4
0	1194	1992.376432484872	5
0	1197	2008.15466989666	4
0	1199	2008.65254536134	3
0	1201	2014.981006693863	2
0	1203	2025.233330860324	3
0	1206	2029.497777097237	2
0	1208	2035.217867360684	3
0	1211	2037.305631981796	2
0	1213	2039.870098909671	3
0	1216	2041.545643528233	4
0	1219	2042.633425249645	3
0	1221	2046.305762600274	4
0	1224	2055.40688048561	3
0	1226	2057.024759991795	4
0	1229	2068.650061851293	5
0	1232	2071.833605832289	6
0	1235	2075.022897779161	5
0	1237	2083.385998122695	4
0	1239	2084.536478088499	5
0	1242	2086.850260649039	4
0	1244	2088.631403461349	5
0	1247	2091.421865289123	4
0	1249	2096.292976749364	3
0	1251	2106.539189070223	4
0	1254	2106.961394913798	3
0	1256	2109.710022678019	2
0	1258	2116.134008771319	3
0	1261	2128.067635387378	4
0	1264	2131.785856819834	3
0	1266	2134.27102004179	2
0	1268	2135.521160466846	3
0	1271	2135.873010665298	4
0	1274	2137.968363852672	5
0	1277	2142.628002805889	4
0	1279	2143.297586492103	5
0	1282	2146.620673750284	6
0	1285	2149.642244440713	5
0	1287	2156.128357622936	6
0	1290	2158.259898836203	7
0	1293	2161.230497001557	8
0	1295	2162.536210939958	9
0	1297	2167.705420015253	8
0	1300	2168.09669803825	7
0	1303	2169.684780197796	6
0	1305	2176.958027187481	5
0	1307	2200.945507037192	4
0	1309	2212.848490342226	3
0	1311	2216.985641140194	4
0	1314	2218.409268481869	5
0	1317	2220.840907128243	4
0	1319	2224.730918394876	3
0	1321	2224.825528510342	4
0	1324	2227.926289244753	3
0	1326	2237.277497368606	4
0	1329	2242.820621476815	5
0	1332	2246.233631833769	4
0	1334	2247.280942245493	3
0	1336	2256.277525112681	2
0	1338	2261.187165092361	3
0	1341	2271.309753300499	4
0	1344	2282.963009911023	3
0	1346	2283.12122085161	2
0	1348	2292.493568232028	3
0	1351	2296.840071375224	2
0	1353	2300.970119415497	1
0	1355	2302.177361759464	2
0	1358	2312.781048863718	3
0	1361	2315.655501624288	4
0	1364	2317.484403779515	5
0	1367	2320.37524521462	6
0	1370	2328.743122975066	5
0	1372	2341.506937075357	6
0	1375	2349.636837919312	5
0	1377	2350.909210398999	4
0	1379	2351.459879261378	5
0	1382	2359.405158491785	4
0	1384	2361.871767086354	5
0	1387	2362.79815771532	4
0	1389	2365.239066978935	3
0	1391	2370.662083009153	4
0	1394	2376.202879363527	5
0	1397	2386.633590478736	6
0	1400	2387.150794108726	7
0	1403	2391.959027009411	6
0	1405	2392.497513593819	7
0	1408	2396.873559810734	6
0	1410	2399.559649173141	7
0	1413	2403.89362829945	8
0	1415	2407.448931386575	9
0	1417	2411.397466892413	8
0	1420	2416.605482229832	7
0	1423	2419.40872064404	6
0	1425	2429.420571420285	5
0	1427	2431.032137925618	4
0	1429	2431.318724062019	3
0	1431	2432.255740495106	2
0	1433	2434.378288605108	1
0	1435	2436.855106925564	2
0	1438	2447.773019662337	3
0	1441	2455.541890410193	4
0	1444	2456.311254206061	5
0	1447	2462.431032618368	6
0	1450	2463.903608898701	7
0	1453	2470.079509765183	8
0	1455	2471.928498948425	9
0	1457	2472.099603656593	8
0	1460	2473.999674893545	7
0	1463	2475.415375715127	8
0	1465	2489.751838449392	7
0	1468	2489.911880716309	8
0	1470	2491.753236505599	7
0	1473	2491.84780233723	8
0	1475	2493.724699589258	9
0	1477	2494.292281780987	10
0	1479	2497.378313048842	9
0	1482	2501.916968595525	8
0	1485	2504.481441570036	7
0	1488	2505.042376847281	8
0	1490	2507.915459674611	9
0	1492	2512.718948852601	8
0	1495	2522.422291917359	9
0	1497	2522.562355285462	8
0	1500	2523.381456026094	7
0	1503	2525.457884094259	8
0	1505	2536.210409615115	7
0	1508	2553.652432217327	6
0	1510	2553.986440188415	7
0	1513	2557.65371926607	6
0	1515	2561.754342806611	7
0	1518	2565.517108067062	6
0	1520	2567.223684111221	5
0	1522	2567.567834461076	4
0	1524	2568.074555240822	5
0	1527	2570.256881041207	6
0	1530	2574.640724838563	5
0	1532	2579.948616384946	4
0	1534	2580.938072890398	5
0	1537	2583.610002252969	6
0	1540	2594.60591945233	7
0	1543	2595.66873576403	6
0	1545	2601.604917171771	7
0	1548	2606.201121801156	6
0	1550	2607.416029365534	7
0	1553	2611.84794578773	8
0	1555	2614.074516074158	7
0	1558	2616.493587162499	6
0	1560	2620.782939496675	5
0	1562	2626.311731238532	6
0	1565	2633.769219076756	5
0	1567	2637.738151601545	4
0	1569	2641.544569796099	5
0	1572	2649.633309074171	4
0	1574	2650.858884075775	5
0	1577	2653.45978060666	6
0	1580	2654.358937965492	7
0	1583	2655.510560895231	6
0	1585	2673.677453340982	7
0	1588	2677.038161818745	6
0	1590	2685.146084665905	7
0	1593	2689.607357355215	6
0	1595	2692.545102784958	5
0	1597	2695.162393081688	6
0	1600	2700.012115732865	7
0	1603	2701.952552745464	6
0	1605	2702.02185571286	7
0	1608	2709.334671078617	6
0	1610	2712.645471760885	5
0	1612	2716.758435200406	6
0	1615	2725.387978420233	5
0	1617	2729.733161673716	6
0	1620	2729.907823990616	7
0	1623	2732.020038981252	8
0	1625	2732.85998309388	9
0	1627	2748.741711103745	10
0	1629	2751.573861779855	11
0	1631	2753.115627782038	10
0	1634	2755.254236059132	11
0	1636	2756.133143862428	10
0	1639	2758.606690529968	11
0	1641	2759.225477894186	12
0	1643	2764.0797888568	13
0	1645	2764.720601579182	14
0	1647	2767.003313949148	13
0	1650	2771.86424923903	14
0	1652	2776.44639705868	13
0	1655	2777.608347041513	12
0	1658	2780.56236860854	13
0	1660	2784.460253634492	14
0	1662	2785.962969760797	13
0	1665	2787.728290709564	12
0	1668	2789.167830927534	13
0	1670	2796.41196988971	12
0	1673	2796.794069360836	11
0	1676	2798.733025509702	10
0	1679	2815.962942499809	9
0	1682	2823.641806420485	8
0	1685	2827.067017803023	9
0	1687	2828.782756760751	10
0	1689	2829.300073342438	9
0	1692	2834.128435125271	10
0	1694	2835.830289398158	9
0	1697	2836.399199463919	8
0	1700	2839.468063303541	7
0	1703	2839.723710458827	6
0	1705	2841.916701002293	5
0	1707	2843.374846354208	6
0	1710	2845.983336457371	7
0	1713	2846.315028737307	6
0	1715	2847.701795150306	7
0	1718	2852.528017124912	8
0	1720	2859.937418511468	9
0	1722	2861.19062677972	10
0	1724	2861.989635838056	11
0	1726	2871.182585588668	12
0	1728	2872.606174677454	11
0	1731	2878.892644819667	10
0	1734	2883.861588691632	9
0	1737	2885.141335087805	8
0	1740	2889.519517938459	9
0	1742	2897.926239313268	8
0	1745	2898.091815900299	7
0	1748	2900.481217616781	8
0	1750	2900.532204353176	9
0	1752	2905.310325950118	10
0	1754	2906.614170724524	9
0	1757	2907.154316117684	8
0	1760	2910.204668349471	7
0	1763	2911.212235772711	8
0	1765	2911.973550210362	7
0	1768	2912.195845488512	8
0	1770	2914.884397334965	7
0	1773	2923.40617928639	6
0	1775	2926.300545711475	5
0	1777	2929.15123989031	6
0	1780	2934.584138274867	5
0	1782	2935.029244049508	6
0	1785	2938.26723624666	7
0	1788	2946.993993097371	6
0	1790	2948.499014997505	5
0	1792	2951.597026238973	6
0	1795	2952.284030236882	5
0	1797	2955.522618495538	6
0	1800	2957.447116515243	5
0	1802	2962.214991272738	4
0	1804	2968.762493065211	5
0	1807	2972.227737297983	6
0	1810	2973.678547195352	7
0	1813	2975.367636354675	8
0	1815	2983.877340158062	9
0	1817	2984.869854459667	8
0	1820	2985.555170534441	9
0	1822	2988.814505820548	8
0	1825	2991.417339962603	7
0	1828	2993.731594577525	6
0	1830	2996.091372873418	5
0	1832	2999.494520397428	4
0	1834	3010.340377767954	5
0	1837	3014.389011149482	6
0	1840	3017.49776527248	5
0	1842	3024.269000271519	4
0	1844	3027.50276700276	5
0	1847	3031.284441860603	4
0	1849	3055.232727212721	5
0	1852	3062.885908283812	6
0	1855	3062.900487146229	5
0	1857	3063.110436365585	6
0	1860	3063.820932732848	7
0	1863	3064.404156930754	8
0	1865	3064.597403452907	7
0	1868	3068.182782969592	8
0	1870	3069.894813550801	9
0	1872	3073.263509085869	8
0	1875	3075.226869555803	7
0	1878	3085.392351986509	6
0	1880	3089.432336945377	7
0	1883	3095.918087351387	8
0	1885	3102.317695949367	7
0	1888	3102.559870343042	6
0	1890	3104.167900493517	5
0	1892	3104.686071314451	6
0	1895	3109.740707140654	5
0	1897	3113.246780619008	6
0	1900	3122.35534150914	5
0	1902	3141.153323758452	4
0	1904	3144.348629843984	3
0	1906	3149.188345581274	4
0	1909	3149.503497779196	3
0	1911	3149.588378915284	4
0	1914	3153.754466636145	3
0	1916	3154.073522139915	2
0	1918	3169.051325517713	3
0	1921	3170.487984567803	4
0	1924	3171.297100516934	3
0	1926	3171.544058647517	4
0	1929	3198.767017545792	5
0	1932	3200.016586424774	6
0	1935	3206.360367239544	5
0	1937	3206.567900007627	6
0	1940	3207.004710266375	7
0	1943	3210.399140689844	6
0	1945	3212.577438789425	7
0	1948	3213.433236160931	6
0	1950	3220.184997742456	5
0	1952	3229.461459977046	6
0	1955	3244.311018906939	7
0	1958	3245.480649827188	6
0	1960	3245.895711807487	7
0	1963	3247.905289013988	8
0	1965	3249.251748371021	9
0	1967	3254.245335433717	8
0	1970	3258.03740390623	9
0	1972	3259.40752497699	10
0	1974	3271.008901924014	9
0	1977	3273.390344352903	8
0	1980	3274.460990330199	9
0	1982	3278.784771005201	10
0	1984	3278.808521303963	11
0	1986	3288.47583473351	10
0	1989	3290.702941638681	9
0	1992	3291.277662079743	10
0	1994	3299.319672594985	9
0	1997	3299.888317861221	8
0	2000	3310.261814071756	9
0	2002	3319.096123699267	10
0	2004	3321.410390488138	11
0	2006	3324.255656058945	10
0	2009	3328.348527619285	9
0	2012	3332.743239338194	10
0	2014	3336.21012737877	11
0	2016	3341.336131893623	10
0	2019	3343.780314525162	11
0	2021	3351.179187810324	10
0	2024	3354.576824018151	11
0	2026	3355.928206513195	12
0	2028	3356.658357845761	11
0	2031	3368.254855356084	12
0	2033	3371.702314289115	11
0	2036	3372.615894042543	12
0	2038	3373.761351064366	13
0	2040	3374.844271967216	12
0	2043	3375.69967376507	11
0	2046	3383.733623116208	10
0	2049	3389.443117971501	9
0	2052	3389.764103058518	8
0	2055	3393.381405351036	7
0	2058	3401.697427418902	8
0	2060	3416.050473018399	7
0	2063	3416.543726325945	6
0	2065	3422.198213054031	5
0	2067	3423.146804221392	6
0	2070	3424.388628630259	7
0	2073	3424.565936934384	6
0	2075	3431.863122549686	7
0	2078	3433.441341027913	6
0	2080	3434.915781930213	7
0	2083	3435.117892917002	8
0	2085	3435.340781310902	7
0	2088	3443.666805018938	8
0	2090	3448.072361574544	9
0	2092	3453.691682107641	8
0	2095	3460.408740333359	7
0	2098	3466.42810545571	6
0	2100	3472.554100389735	5
0	2102	3473.384574468634	4
0	2104	3479.96656692331	5
0	2107	3482.016225114455	4
0	2109	3486.90831463291	3
0	2111	3501.37671742874	2
0	2113	3502.761097678631	1
0	2115	3505.513838914152	2
0	2118	3512.340077168677	3
0	2121	3514.677255841467	4
0	2124	3520.981358973441	3
0	2126	3533.269965320576	2
0	2128	3534.907461225927	3
0	2131	3537.886302865176	2
0	2133	3539.635092554355	3
0	2136	3541.763481691918	4
0	2139	3549.514136432868	5
0	2142	3552.836084593047	4
0	2144	3554.229625104709	5
0	2147	3556.032467542262	6
0	2150	3557.335132427859	5
0	2152	3562.398212946384	6
0	2155	3563.522990212743	5
0	2157	3565.228184105044	4
0	2159	3567.524426827718	3
0	2161	3571.47176948519	4
0	2164	3582.341091882025	5
0	2167	3588.124078270767	4
0	2169	3588.697403260669	3
0	2171	3604.392528665824	4
0	2174	3605.285920066744	3
0	2176	3609.840931302056	4
0	2179	3620.425321200372	5
0	2182	3630.339271942587	4
0	2184	3635.01662745332	3
0	2186	3640.023763841904	4
0	2189	3647.993809297331	5
0	2192	3648.061881208366	6
0	2195	3669.885652350633	5
0	2197	3677.677752268478	4
0	2199	3685.625850922183	5
0	2202	3687.903677384583	4
0	2204	3695.829223366918	5
0	2207	3702.012904522686	4
0	2209	3702.073070636696	3
0	2211	3707.481981276088	4
0	2214	3708.733782769812	3
0	2216	3713.756048972726	4
0	2219	3716.048885133358	3
0	2221	3722.549913834056	2
0	2223	3723.935824523659	3
0	2226	3723.99276775574	2
0	2228	3745.923999646218	3
0	2231	3756.340687752654	4
0	2234	3773.586552527511	5
0	2237	3794.910271801737	4
0	2239	3796.507324341147	5
0	2242	3797.374309160976	6
0	2245	3798.714437863077	5
0	2247	3799.628328192654	6
0	2250	3801.635456560209	7
0	2253	3801.859272406661	6
0	2255	3807.388763319796	5
0	2257	3807.694618911512	6
0	2260	3815.343033023357	7
0	2263	3818.224792267917	6
0	2265	3821.432268863471	5
0	2267	3821.756615394735	6
0	2270	3825.958482473478	5
0	2272	3833.680859064104	6
0	2275	3834.397825559074	5
0	2277	3836.028782024325	6
0	2280	3838.256465159048	7
0	2283	3839.19818031081	6
0	2285	3839.417886040842	5
0	2287	3840.418541493258	4
0	2289	3846.358673866653	3
0	2291	3850.262092279725	2
0	2293	3851.485175502925	1
0	2295	3860.733425495307	2
0	2298	3861.07079168287	3
0	2301	3865.362619314963	4
0	2304	3865.529433323871	5
0	2307	3868.440663565128	6
0	2310	3868.531129150567	5
0	2312	3873.670672834498	4
0	2314	3876.303752999917	3
0	2316	3879.300008793179	4
0	2319	3886.979380105161	3
0	2321	3891.123594188027	4
0	2324	3892.455047202643	5
0	2327	3893.795564356575	6
0	2330	3913.420491830028	5
0	2332	3916.748043599304	4
0	2334	3921.123036934314	3
0	2336	3929.474481575305	4
0	2339	3930.15069956651	3
0	2341	3931.909614733884	2
0	2343	3937.513863320228	1
0	2345	3950.514216081514	2
0	2348	3952.555740221935	1
0	2350	3961.70201457769	2
0	2353	3961.948719126219	3
0	2356	3965.92174113435	4
0	2359	3970.780085969592	3
0	2361	3982.563779485973	4
0	2364	3983.050189398824	5
0	2367	3986.627956713455	4
0	2369	3989.496478499783	3
0	2371	3990.274766122617	4
0	2374	3992.363945834627	3
0	2376	3992.994306862698	4
0	2379	3993.832389359965	3
0	2381	3994.212607992854	2
0	2383	3998.475122797333	3
0	2386	4005.572914591888	4
0	2389	4007.276574922347	3
0	2391	4011.745094843112	2
0	2393	4021.011096307661	3
0	2396	4036.246483786143	4
0	2399	4044.939367182581	3
0	2401	4047.391684599593	2
0	2403	4052.289547454269	3
0	2406	4054.239237444315	2
0	2408	4063.863772191101	1
0	2410	4070.734290265464	2
0	2413	4083.429611070681	3
0	2416	4084.036349993546	2
0	2418	4085.071110662679	3
0	2421	4098.09124732529	2
0	2423	4098.325322281183	3
0	2426	4105.681761344336	4
0	2429	4106.343519696699	3
0	2431	4116.58884301919	4
0	2434	4121.061358636983	3
0	2436	4123.321211386121	4
0	2439	4123.861133856703	3
0	2441	4126.866366998188	2
0	2443	4127.406132410497	1
0	2445	4133.056574696751	2
0	2448	4143.645304003727	3
0	2451	4144.263129221703	4
0	2454	4147.95100292594	5
0	2457	4148.031800569215	6
0	2460	4156.355631931871	5
0	2462	4159.035889318505	6
0	2465	4159.828716334134	7
0	2468	4165.624989244875	8
0	2470	4168.53141442799	9
0	2472	4172.388679277801	10
0	2474	4173.514778261117	9
0	2477	4178.050016804645	8
0	2480	4179.88254425426	7
0	2483	4184.949850848601	6
0	2485	4187.278308235404	5
0	2487	4197.177626288287	6
0	2490	4197.539519313207	5
0	2492	4201.315658809659	6
0	2495	4203.453155683628	5
0	2497	4203.477413900326	4
0	2499	4204.449069978027	5
0	2502	4205.774496839689	4
0	2504	4208.207223265124	5
0	2507	4208.930322202246	6
0	2510	4213.998174438725	5
0	2512	4215.358364586919	4
0	2514	4217.118515479417	3
0	2516	4217.57663035872	2
0	2518	4233.416126303205	3
0	2521	4245.572521246819	4
0	2524	4255.898158951017	5
0	2527	4261.746183644136	6
0	2530	4264.896526807114	5
0	2532	4269.817794417104	4
0	2534	4274.229256517372	3
0	2536	4274.61250762226	4
0	2539	4277.135214252676	5
0	2542	4282.830716414115	6
0	2545	4286.970553240702	7
0	2548	4290.531970597283	8
0	2550	4292.739109873183	9
0	2552	4294.97837664008	8
0	2555	4296.158615680039	7
0	2558	4296.883950735422	8
0	2560	4303.584642881879	7
0	2563	4308.776990335737	8
0	2565	4309.066455008421	7
0	2568	4309.329963998736	8
0	2570	4313.233167964697	7
0	2573	4314.582257748102	8
0	2575	4314.633282270491	7
0	2578	4314.859378338482	8
0	2580	4315.122232488513	7
0	2583	4316.669980048955	6
0	2585	4322.072216230496	7
0	2588	4330.156737620132	6
0	2590	4343.521443686241	7
0	2593	4345.750912011416	8
0	2595	4346.178668334071	7
0	2598	4347.920147689564	8
0	2600	4350.739144489201	7
0	2603	4351.72069732743	8
0	2605	4351.924892658617	9
0	2607	4355.394387307299	10
0	2609	4356.621294023066	11
0	2611	4358.265397576532	12
0	2613	4366.809296282994	11
0	2616	4375.74301230684	12
0	2618	4376.272685111975	11
0	2621	4377.146131105928	12
0	2623	4378.976765770747	11
0	2626	4381.397152397454	10
0	2629	4385.826647932514	9
0	2632	4390.948708981881	10
0	2634	4391.019302675585	11
0	2636	4393.0704531668	12
0	2638	4393.622935574128	13
0	2640	4394.896315622224	12
0	2643	4400.141244084183	11
0	2646	4401.935429624403	10
0	2649	4407.018159401149	11
0	2651	4412.58206612863	12
0	2653	4417.389834003649	13
0	2655	4417.675025122596	12
0	2658	4418.10565244957	13
0	2660	4423.304419129868	12
0	2663	4425.205939487914	11
0	2666	4428.308220221902	10
0	2669	4432.149370957491	9
0	2672	4432.931772290547	8
0	2675	4437.382618671892	9
0	2677	4445.946897046353	10
0	2679	4446.35681721646	11
0	2681	4448.054854473493	12
0	2683	4449.488708496902	11
0	2686	4452.487085922687	10
0	2689	4454.483711224701	11
0	2691	4455.100331223123	12
0	2693	4455.468054813589	13
0	2695	4459.924924586316	14
0	2697	4467.484059893473	13
0	2700	4470.613401592329	12
0	2703	4479.464372792097	11
0	2706	4481.851829706059	12
0	2708	4490.248717033471	13
0	2710	4498.909221924668	14
0	2712	4511.159895785896	13
0	2715	4513.112507284492	12
0	2718	4514.623031245958	11
0	2721	4515.633938635499	12
0	2723	4520.266625174174	13
0	2725	4524.398157406069	12
0	2728	4524.78673124605	11
0	2731	4530.63451652775	10
0	2734	4537.96521880188	11
0	2736	4549.521869523703	10
0	2739	4550.097538598278	11
0	2741	4556.172598207719	10
0	2744	4557.818413796673	9
0	2747	4559.004993329526	10
0	2749	4565.433960418068	9
0	2752	4570.075456962254	8
0	2755	4570.587616475321	7
0	2758	4575.728173326127	6
0	2760	4577.866703297503	7
0	2763	4578.967057606586	6
0	2765	4583.063949625429	7
0	2768	4583.105589511444	6
0	2770	4586.558016336561	5
0	2772	4590.693416933555	4
0	2774	4598.72775514347	3
0	2776	4599.870787113163	2
0	2778	4613.794903883412	3
0	2781	4617.123724229752	4
0	2784	4619.073892297356	3
0	2786	4622.332832613857	2
0	2788	4624.346393916321	3
0	2791	4633.360065190348	4
0	2794	4640.475456662737	3
0	2796	4650.199429816938	4
0	2799	4652.089301218201	5
0	2802	4661.066644929157	6
0	2805	4668.14100076399	5
0	2807	4671.499309627051	4
0	2809	4675.73033876986	5
0	2812	4688.37699510143	6
0	2815	4693.046574905105	5
0	2817	4694.80118905937	6
0	2820	4703.411131555747	7
0	2823	4704.685735973738	6
0	2825	4706.721130153295	5
0	2827	4727.731322012834	4
0	2829	4732.817183858892	3
0	2831	4733.007402138752	4
0	2834	4733.047712379962	3
0	2836	4738.939619725134	2
0	2838	4739.093165208688	1
0	2840	4744.150213454093	2
0	2843	4745.232124458144	3
0	2846	4749.728128688624	2
0	2848	4754.013990128729	1
0	2850	4760.061632912315	2
0	2853	4761.633291029261	3
0	2856	4766.069466676482	4
0	2859	4767.00796867703	5
0	2862	4775.224006661253	4
0	2864	4779.666552306692	3
0	2866	4790.863329130003	4
0	2869	4796.253143182783	3
0	2871	4801.562750058599	4
0	2874	4811.858309781964	3
0	2876	4814.248060683226	4
0	2879	4822.289190611427	5
0	2882	4824.486362560791	6
0	2885	4825.007076593028	7
0	2888	4826.174216290407	8
0	2890	4826.563281315419	7
0	2893	4828.865587183828	6
0	2895	4831.297599114934	5
0	2897	4833.384511253338	6
0	2900	4835.64252212989	7
0	2903	4836.767101008558	6
0	2905	4837.02689738231	5
0	2907	4838.248194594539	6
0	2910	4843.675041038496	7
0	2913	4844.992721645974	6
0	2915	4847.964047878863	7
0	2918	4849.634792347054	8
0	2920	4855.880876563072	9
0	2922	4859.882604753249	10
0	2924	4862.134527396426	11
0	2926	4862.361099594325	12
0	2928	4870.773112309758	13
0	2930	4872.076017960078	14
0	2932	4875.970088109096	13
0	2935	4876.311440077247	12
0	2938	4882.582930396607	11
0	2941	4884.060844434285	10
0	2944	4888.328864779305	11
0	2946	4896.006737886322	12
0	2948	4896.947008712114	13
0	2950	4901.332789907627	12
0	2953	4908.375668626286	11
0	2956	4909.781323988353	10
0	2959	4917.570758599354	9
0	2962	4918.220189286677	10
0	2964	4920.00696437309	9
0	2967	4929.476216906657	8
0	2970	4939.423000956126	9
0	2972	4941.451461145543	10
0	2974	4943.844931268224	9
0	2977	4946.581179778962	10
0	2979	4965.653199411412	11
0	2981	4971.783079031358	12
0	2983	4977.274270981664	13
0	2985	4985.2416225466	12
0	2988	4985.322267006083	11
0	2991	4985.501971734819	10
0	2994	4986.896430701368	11
0	2996	4988.194992099645	10
0	2999	4991.60029198985	11
0	3001	5000.336312086607	12
0	3003	5001.40877498513	11
0	3006	5002.45572280236	12
0	3008	5004.409870080227	13
0	3010	5006.994666653871	12
0	3013	5007.335660331736	11
0	3016	5009.836799464993	10
0	3019	5009.933085368822	11
0	3021	5018.008752741862	12
0	3023	5019.358777363289	11
0	3026	5020.162501811327	10
0	3029	5022.401840917993	9
0	3032	5023.791121675178	8
0	3035	5026.005116493741	7
0	3038	5029.999293744537	6
0	3040	5030.452060488533	5
0	3042	5030.828843021738	6
0	3045	5034.328862189895	5
0	3047	5035.039374875288	6
0	3050	5036.984012898487	5
0	3052	5042.207225992407	6
0	3055	5049.688725157539	7
0	3058	5055.465217237497	6
0	3060	5058.70806692816	5
0	3062	5064.727336808414	6
0	3065	5067.920296579825	5
0	3067	5068.565639212172	4
0	3069	5070.766006125015	5
0	3072	5073.507987658391	4
0	3074	5081.747466183672	3
0	3076	5082.390658820131	4
0	3079	5089.032514533652	5
0	3082	5089.456240594876	4
0	3084	5089.632343778971	5
0	3087	5095.032907011163	4
0	3089	5097.613427462679	5
0	3092	5100.489853085816	6
0	3095	5105.961144191188	5
0	3097	5113.044696005219	4
0	3099	5116.622697199435	3
0	3101	5120.74746273985	4
0	3104	5130.184699110632	5
0	3107	5132.871726573686	6
0	3110	5133.709836621105	7
0	3113	5138.231526643455	6
0	3115	5148.276139462472	5
0	3117	5156.302559417122	6
0	3120	5156.760506761374	7
0	3123	5156.852362665998	8
0	3125	5159.786116782272	7
0	3128	5160.343466094135	8
0	3130	5161.369793072135	7
0	3133	5166.43608044914	8
0	3135	5168.349705961533	7
0	3138	5168.551575922808	6
0	3140	5168.945346173426	7
0	3143	5174.219451470112	8
0	3145	5178.366760684088	9
0	3147	5184.30357398345	8
0	3150	5189.140495830015	9
0	3152	5190.026334270569	8
0	3155	5192.674932557245	7
0	3158	5192.842754133024	6
0	3160	5200.529426197388	5
0	3162	5200.638463043337	6
0	3165	5201.94408190159	7
0	3168	5204.663175258104	6
0	3170	5205.198665232221	7
0	3173	5207.234591036105	6
0	3175	5216.645186749556	5
0	3177	5222.777762792249	4
0	3179	5233.571521037103	5
0	3182	5242.256795174048	4
0	3184	5255.680476040534	3
0	3186	5274.510952935958	2
0	3188	5281.899094404389	3
0	3191	5291.533698411388	2
0	3193	5295.189529344829	3
0	3196	5297.263505475677	2
0	3198	5303.975841682285	1
0	3200	5305.426713513695	2
0	3203	5319.99671128858	3
0	3206	5326.136803747514	2
0	3208	5333.728227769421	1
0	3210	5333.932232540189	0
0	3212	5341.142544149941	1
0	3215	5347.353204077747	0
0	3217	5355.312081529652	1
0	3220	5365.644878079994	2
0	3223	5368.963571058142	1
0	3225	5373.680589441691	2
0	3228	5383.961871734547	3
0	3231	5384.058608698164	4
0	3234	5390.506872709155	5
0	3237	5404.826085279712	6
0	3240	5411.197376968202	5
0	3242	5413.540579897949	6
0	3245	5418.742372685309	5
0	3247	5429.08668098352	6
0	3250	5434.11738305857	7
0	3253	5443.12703698763	8
0	3255	5445.801182946094	9
0	3257	5447.547601415693	8
0	3260	5455.844425090894	7
0	3263	5458.127345307048	6
0	3265	5461.298990728429	5
0	3267	5466.667006130943	6
0	3270	5467.952884205676	5
0	3272	5489.054506408278	4
0	3274	5489.803957695153	5
0	3277	5492.324204786876	4
0	3279	5492.49934219961	5
0	3282	5499.076998353436	6
0	3285	5499.880550396569	7
0	3288	5502.145667478337	6
0	3290	5505.103418857273	5
0	3292	5515.665952284167	4
0	3294	5518.192091335405	5
0	3297	5524.361393198271	4
0	3299	5526.606171821773	5
0	3302	5528.758942855469	6
0	3305	5536.683071665746	5
0	3307	5537.09309991898	4
0	3309	5542.782772035271	5
0	3312	5560.010761677223	4
0	3314	5563.696003127657	5
0	3317	5566.424959620444	6
0	3320	5576.646693464479	5
0	3322	5582.952967403253	6
0	3325	5583.780859635954	7
0	3328	5585.514933085344	6
0	3330	5590.327498517977	5
0	3332	5594.628512571158	4
0	3334	5600.430066714845	3
0	3336	5602.208287482424	4
0	3339	5602.946473039607	3
0	3341	5608.000626512771	4
0	3344	5618.622585546952	3
0	3346	5621.458769592377	2
0	3348	5634.066073886653	3
0	3351	5636.333029483499	4
0	3354	5640.458239250112	3
0	3356	5646.407574683041	4
0	3359	5665.07498015865	3
0	3361	5665.090787761519	4
0	3364	5665.942965713886	3
0	3366	5677.34054035442	2
0	3368	5678.855793780237	3
0	3371	5680.18519009371	2
0	3373	5690.248045290861	3
0	3376	5697.884481033825	2
0	3378	5698.413895383738	1
0	3380	5699.450963172382	2
0	3383	5705.498817946925	3
0	3386	5705.600293059452	2
0	3388	5706.230903446679	3
0	3391	5718.917172999322	4
0	3394	5723.399240391743	3
0	3396	5727.770602716649	4
0	3399	5736.078761215174	3
0	3401	5737.066132121968	2
0	3403	5737.434525200307	3
0	3406	5747.011873086539	4
0	3409	5748.668006552693	5
0	3412	5758.591584033548	4
0	3414	5767.205923480783	3
0	3416	5768.528926514344	4
0	3419	5769.29025358332	5
0	3422	5776.967413608889	4
0	3424	5781.455466722863	5
0	3427	5781.778319402287	6
0	3430	5782.929173834685	7
0	3433	5787.074048269428	8
0	3435	5799.501940230202	9
0	3437	5803.543995998354	8
0	3440	5805.303714170961	7
0	3443	5805.733194304523	6
0	3445	5806.20610645553	5
0	3447	5808.386310910221	6
0	3450	5818.893518539191	7
0	3453	5821.917122519608	8
0	3455	5822.114148672504	7
0	3458	5827.769565837461	8
0	3460	5828.565591929728	7
0	3463	5846.640098566328	6
0	3465	5853.690652326865	5
0	3467	5856.235165537627	4
0	3469	5860.13066435583	5
0	3472	5860.39596303038	6
0	3475	5862.017742465492	7
0	3478	5864.85804122683	6
0	3480	5873.525293958866	7
0	3483	5875.527683254622	8
0	3485	5875.786606461887	9
0	3487	5881.414554111988	8
0	3490	5883.902746851185	7
0	3493	5884.88170168149	6
0	3495	5892.562866164543	5
0	3497	5895.160351688665	6
0	3500	5897.981489330609	5
0	3502	5898.896161246451	4
0	3504	5902.369234903804	3
0	3506	5903.608675612481	2
0	3508	5906.40797615184	1
0	3510	5910.11894298252	2
0	3513	5914.767117501753	3
0	3516	5922.042570086465	4
0	3519	5922.242707110958	3
0	3521	5930.960602901756	2
0	3523	5932.775897754756	3
0	3526	5937.387777405916	4
0	3529	5938.296320770006	5
0	3532	5940.657523850532	6
0	3535	5945.804718491559	5
0	3537	5947.241705303496	6
0	3540	5959.382150536283	7
0	3543	5963.273256602377	6
0	3545	5964.650094212309	5
0	3547	5968.320362394235	6
0	3550	5974.657407919698	5
0	3552	5982.563941706132	6
0	3555	5986.675457344777	5
0	3557	5992.019045649642	6
0	3560	5992.237970959047	7
0	3563	5996.835301899417	6
0	3565	6015.720183558273	5
0	3567	6021.23478175257	6
0	3570	6028.266122781472	5
0	3572	6034.574178150988	4
0	3574	6039.131092878975	3
0	3576	6043.587226942092	4
0	3579	6050.781488872446	5
0	3582	6052.955859302591	6
0	3585	6053.386737538679	5
0	3587	6055.681498863514	4
0	3589	6062.816122334793	5
0	3592	6063.36405955034	6
0	3595	6067.68344269152	7
0	3598	6069.403453676136	8
0	3600	6071.138923619145	9
0	3602	6073.672308240743	8
0	3605	6077.895167452427	9
0	3607	6080.590423773246	10
0	3609	6086.030104382386	11
0	3611	6094.915826686946	10
0	3614	6095.194139056154	11
0	3616	6097.031380395151	10
0	3619	6098.286159716697	9
0	3622	6098.860894498005	8
0	3625	6099.062506539153	7
0	3628	6100.95123763715	8
0	3630	6102.713138862285	7
0	3633	6108.116426460313	6
0	3635	6108.367120090324	7
0	3638	6120.889029844456	8
0	3640	6121.839893783864	7
0	3643	6132.269946691019	8
0	3645	6133.015708580015	7
0	3648	6137.705273196526	6
0	3650	6151.15817805718	5
0	3652	6153.233679815691	6
0	3655	6157.635261769864	7
0	3658	6160.149289164342	8
0	3660	6160.24492615439	9
0	3662	6163.624412677873	8
0	3665	6169.88386775623	7
0	3668	6183.544969244097	8
0	3670	6184.646911901213	7
0	3673	6185.840387008153	6
0	3675	6187.415603849634	5
0	3677	6188.641094903311	6
0	3680	6190.870447111108	7
0	3683	6194.039559193207	8
0	3685	6197.37329899552	7
0	3688	6201.598224871664	6
0	3690	6202.011837413597	7
0	3693	6203.490053007596	6
0	3695	6208.029880241141	5
0	3697	6217.709378401371	6
0	3700	6219.811806590329	7
0	3703	6229.116506522522	6
0	3705	6229.894175667404	5
0	3707	6233.309927343738	6
0	3710	6235.353432663107	5
0	3712	6237.542745774226	4
0	3714	6241.423647515756	5
0	3717	6243.891392210931	6
0	3720	6249.295047011969	5
0	3722	6260.539673267668	6
0	3725	6261.150080228157	5
0	3727	6261.519711377958	6
0	3730	6265.307572213427	7
0	3733	6268.625969189311	6
0	3735	6270.813187731081	7
0	3738	6277.596695823254	6
0	3740	6277.601739950093	5
0	3742	6277.634878678427	4
0	3744	6281.530006322443	5
0	3747	6281.643409082996	6
0	3750	6287.423384404522	5
0	3752	6288.047508480203	6
0	3755	6298.866548512813	5
0	3757	6304.715931322474	4
0	3759	6311.030232223304	5
0	3762	6321.698489068875	4
0	3764	6334.007205219148	5
0	3767	6335.215551598569	4
0	3769	6338.016059431627	5
0	3772	6339.628608446449	6
0	3775	6340.943213478866	5
0	3777	6342.362291313659	6
0	3780	6348.315120176939	7
0	3783	6353.554720889971	6
0	3785	6354.023443308483	7
0	3788	6355.859192910123	6
0	3790	6361.248139051079	7
0	3793	6364.087223199409	8
0	3795	6364.834478195937	7
0	3798	6365.003697199309	8
0	3800	6365.354856124616	9
0	3802	6365.64844661547	10
0	3804	6366.506059148475	11
0	3806	6370.659898708636	10
0	3809	6372.74630218677	9
0	3812	6373.51890319547	10
0	3814	6376.642691179507	11
0	3816	6376.71777253599	10
0	3819	6380.267571411928	9
0	3822	6381.709437078285	8
0	3825	6385.130416478601	9
0	3827	6385.180350304583	8
0	3830	6389.003445623391	7
0	3833	6394.259461620654	6
0	3835	6403.014355781515	7
0	3838	6403.041295211311	8
0	3840	6405.767084544414	9
0	3842	6407.743523834632	8
0	3845	6411.276254733341	7
0	3848	6419.63969045286	8
0	3850	6420.044162106108	7
0	3853	6422.907939552702	8
0	3855	6423.002557959895	7
0	3858	6425.173438351981	8
0	3860	6431.064896922953	7
0	3863	6432.394402011998	6
0	3865	6436.649150703965	7
0	3868	6438.527618230267	6
0	3870	6441.673954781887	7
0	3873	6449.658724641281	8
0	3875	6449.88790327351	7
0	3878	6452.621604744437	8
0	3880	6454.260732101691	9
0	3882	6454.52261994223	10
0	3884	6458.516791186477	9
0	3887	6461.196329018579	8
0	3890	6465.060227882706	9
0	3892	6465.681040390357	10
0	3894	6473.790581830307	11
0	3896	6473.807411856711	12
0	3898	6474.0724577833	13
0	3900	6476.696783846846	14
0	3902	6479.12273841726	15
0	3904	6495.184613207588	14
0	3907	6498.434623477428	15
0	3909	6498.940062036897	14
0	3912	6502.209244029092	13
0	3915	6502.504422152851	14
0	3917	6505.212565234769	13
0	3920	6506.08905614082	14
0	3922	6509.787645349067	13
0	3925	6510.341962346527	14
0	3927	6511.935700142849	15
0	3929	6516.575161903449	16
0	3931	6518.316218302902	15
0	3934	6526.969478987473	16
0	3936	6527.921575854758	15
0	3939	6529.267421903233	14
0	3942	6531.893891204685	15
0	3944	6533.429858478451	14
0	3947	6539.189067280541	15
0	3949	6540.561845323379	14
0	3952	6546.160123993551	13
0	3955	6546.186120539899	12
0	3958	6550.423317335601	13
0	3960	6550.702668712607	14
0	3962	6555.112553625817	13
0	3965	6558.517597714723	12
0	3968	6561.394945526555	13
0	3970	6562.693885218398	12
0	3973	6565.098662094766	13
0	3975	6567.348368036476	14
0	3977	6572.634819370655	13
0	3980	6576.205798674536	12
0	3983	6581.239858393515	13
0	3985	6590.914516073245	14
0	3987	6590.951460688301	15
0	3989	6594.821633123819	14
0	3992	6608.233577918733	13
0	3995	6609.747586304293	12
0	3998	6611.259957819832	13
0	4000	6611.613804309638	12
0	4003	6615.311925955744	11
0	4006	6615.593308094148	10
0	4009	6626.974957634501	11
0	4011	6627.94747897816	12
0	4013	6628.436949773973	11
0	4016	6634.360574031779	10
0	4019	6634.766400286105	11
0	4021	6635.518452219967	10
0	4024	6635.546213680948	9
0	4027	6639.094095161111	8
0	4030	6640.261695862448	9
0	4032	6646.510757091067	8
0	4035	6648.133568472095	7
0	4038	6650.266422184379	8
0	4040	6652.191341858642	9
0	4042	6653.234204061859	8
0	4045	6662.726595539387	7
0	4048	6663.282160749781	6
0	4050	6666.237662334196	7
0	4053	6666.863259429181	6
0	4055	6667.611556675078	5
0	4057	6671.229056404706	6
0	4060	6676.382560420055	5
0	4062	6677.094011466866	4
0	4064	6682.498013537246	3
0	4066	6683.061851051311	2
0	4068	6685.87514098022	1
0	4070	6692.73074981803	2
0	4073	6696.752951570131	3
0	4076	6700.450311103083	2
0	4078	6712.033365713994	3
0	4081	6722.753384888138	2
0	4083	6724.935155006734	3
0	4086	6726.640219236205	4
0	4089	6727.230427655158	3
0	4091	6732.875219101109	4
0	4094	6745.192694170949	3
0	4096	6762.779920824392	2
0	4098	6763.017181645596	3
0	4101	6769.287345146541	4
0	4104	6771.377533394654	5
0	4107	6772.885427971766	6
0	4110	6780.398643676535	5
0	4112	6782.718096275148	6
0	4115	6786.612318094936	5
0	4117	6787.400959327631	4
0	4119	6787.58223344272	5
0	4122	6800.434802301698	4
0	4124	6805.020201530217	5
0	4127	6806.228732836797	4
0	4129	6807.385905501967	3
0	4131	6815.208491039695	4
0	4134	6820.466310186775	3
0	4136	6821.063972467411	4
0	4139	6826.867694689864	5
0	4142	6828.079184210169	6
0	4145	6828.744113645003	7
0	4148	6833.640430262764	6
0	4150	6849.258947839649	5
0	4152	6853.102911641046	4
0	4154	6855.621436254	3
0	4156	6855.879295354362	2
0	4158	6863.831161467983	3
0	4161	6866.862818801442	4
0	4164	6879.996862792684	5
0	4167	6882.935854570681	6
0	4170	6884.370134178917	7
0	4173	6888.149032118652	6
0	4175	6889.8600153632	5
0	4177	6893.867003451993	4
0	4179	6896.035440367953	5
0	4182	6898.678238095699	4
0	4184	6902.206261959773	3
0	4186	6905.012667220052	4
0	4189	6906.148893659833	3
0	4191	6910.150752273514	2
0	4193	6911.642602281742	3
0	4196	6928.157863873674	2
0	4198	6936.646777318428	3
0	4201	6943.415964273656	2
0	4203	6952.376201187383	3
0	4206	6956.242438785232	2
0	4208	6976.008170316959	3
0	4211	6981.954252231229	4
0	4214	6987.492979809164	5
0	4217	6987.513414547944	4
0	4219	6990.348823687341	5
0	4222	6993.412704215178	6
0	4225	6993.473804644306	5
0	4227	6995.353074759873	6
0	4230	7003.722891516165	7
0	4233	7004.080734004408	6
0	4235	7008.357496757021	7
0	4238	7011.838787458641	6
0	4240	7014.764112952792	7
0	4243	7028.533298647623	6
0	4245	7032.733541787606	5
0	4247	7033.266623867264	6
0	4250	7050.990738727847	5
0	4252	7051.702133389271	4
0	4254	7051.84567408738	5
0	4257	7054.237044936543	6
0	4260	7059.958411819988	5
0	4262	7064.344737910404	6
0	4265	7070.806497155503	5
0	4267	7071.832307237408	4
0	4269	7077.10452006922	5
0	4272	7080.6110169058	6
0	4275	7089.039219562419	7
0	4278	7091.794552475652	6
0	4280	7097.351526876229	5
0	4282	7098.491289594932	6
0	4285	7099.159086012899	7
0	4288	7099.502079335806	8
0	4290	7100.682516462476	9
0	4292	7103.488213814771	10
0	4294	7106.873524686225	9
0	4297	7113.025039910471	10
0	4299	7113.416049550447	9
0	4302	7120.520905450155	10
0	4304	7127.139432252848	11
0	4306	7127.228655386687	10
0	4309	7127.321355427573	9
0	4312	7128.718054512465	8
0	4315	7130.075839675739	9
0	4317	7131.993934086889	10
0	4319	7133.504508833539	11
0	4321	7137.440574362671	10
0	4324	7139.944053771398	11
0	4326	7140.124885484626	12
0	4328	7142.089833329664	11
0	4331	7142.535581926241	12
0	4333	7149.738209337459	13
0	4335	7149.784869216174	12
0	4338	7150.702691710354	13
0	4340	7163.9208444408	14
0	4342	7167.542270218151	13
0	4345	7168.050196781793	12
0	4348	7172.209156501364	13
0	4350	7173.892650173314	14
0	4352	7177.553862751218	13
0	4355	7178.097152028154	12
0	4358	7181.517597114402	13
0	4360	7181.63034727219	12
0	4363	7182.714072326514	13
0	4365	7184.609111545841	14
0	4367	7188.025474002655	15
0	4369	7192.844305346018	16
0	4371	7198.492280145524	17
0	4373	7198.912458238231	18
0	4375	7198.999050919211	19
0	4377	7199.185056975329	18
0	4380	7200.387329451894	17
0	4383	7206.127932275368	16
0	4386	7210.706155256733	17
0	4388	7219.859737553874	16
0	4391	7225.513487849774	17
0	4393	7225.533088432111	18
0	4395	7226.296089654489	17
0	4398	7226.308131115271	18
0	4400	7226.920782518472	19
0	4402	7233.820791220663	20
0	4404	7238.027588097453	19
0	4407	7238.474620833316	18
0	4410	7240.975786625296	17
0	4413	7248.07616455119	16
0	4416	7253.685867045497	15
0	4419	7255.168256040377	16
0	4421	7255.388377264136	17
0	4423	7261.734492525952	16
0	4426	7263.835461316004	15
0	4429	7264.022719946342	14
0	4432	7271.137739290825	15
0	4434	7276.589401821474	14
0	4437	7277.927128077747	13
0	4440	7279.534039120654	14
0	4442	7285.99349103301	13
0	4445	7291.79636726249	14
0	4447	7294.220818395355	13
0	4450	7302.543212058726	12
0	4453	7302.712824329251	13
0	4455	7304.453497257102	12
0	4458	7307.154951314338	11
0	4461	7309.060162057817	10
0	4464	7314.30117824969	11
0	4466	7317.728182154651	10
0	4469	7320.393125540132	9
0	4472	7329.851278053143	8
0	4475	7332.001419625339	9
0	4477	7332.691866542952	8
0	4480	7340.072369502452	7
0	4483	7341.197648449975	8
0	4485	7342.809991877034	7
0	4488	7342.962714058476	6
0	4490	7347.060441637454	7
0	4493	7355.943731737179	6
0	4495	7358.516654218915	5
0	4497	7358.677323843136	4
0	4499	7366.822180932657	3
0	4501	7368.579641215494	2
0	4503	7370.269503380619	3
0	4506	7370.376923773166	4
0	4509	7373.367010167469	3
0	4511	7374.318319318141	4
0	4514	7378.494826767712	3
0	4516	7385.156697738539	4
0	4519	7387.957204494676	5
0	4522	7393.845693715311	4
0	4524	7396.253601310066	3
0	4526	7397.916672483871	2
0	4528	7399.432965069815	3
0	4531	7399.469182002862	4
0	4534	7400.458620118065	3
0	4536	7412.882149767619	4
0	4539	7414.506424332949	5
0	4542	7419.598714580618	6
0	4545	7421.123620751524	7
0	4548	7425.019950864587	6
0	4550	7426.899702396355	7
0	4553	7428.719771598726	8
0	4555	7431.970784559542	9
0	4557	7433.180356075137	8
0	4560	7433.515913528595	7
0	4563	7439.227475266385	6
0	4565	7439.756862471126	5
0	4567	7441.277614696176	6
0	4570	7450.511183969696	5
0	4572	7450.518915618295	4
0	4574	7457.479068430714	3
0	4576	7458.703661098084	4
0	4579	7464.604528022872	5
0	4582	7464.766554877967	6
0	4585	7468.503576114197	5
0	4587	7475.394940034089	6
0	4590	7481.766725206561	7
0	4593	7483.283617335335	8
0	4595	7484.478911075341	7
0	4598	7491.065014114089	6
0	4600	7491.735560625357	5
0	4602	7496.33018483201	6
0	4605	7503.366686202612	5
0	4607	7505.43942791469	4
0	4609	7508.295059462864	5
0	4612	7508.325617856618	4
0	4614	7510.44609117817	3
0	4616	7515.472243845176	4
0	4619	7516.260375642596	3
0	4621	7520.658967954393	4
0	4624	7522.287546917159	5
0	4627	7522.771899606676	6
0	4630	7527.583178119275	5
0	4632	7530.46088392453	6
0	4635	7531.248452696859	5
0	4637	7535.323454866403	4
0	4639	7535.762154364376	3
0	4641	7537.588240323214	2
0	4643	7538.155091569153	3
0	4646	7546.76151622428	4
0	4649	7563.846431634023	5
0	4652	7565.027078078239	4
0	4654	7568.55314708976	3
0	4656	7570.853943995079	4
0	4659	7573.477826441802	5
0	4662	7575.892445625575	4
0	4664	7579.723290741513	3
0	4666	7581.40411800119	2
0	4668	7583.993730060784	1
0	4670	7594.480105618913	2
0	4673	7594.651364349537	1
0	4675	7601.692323217284	2
0	4678	7604.085406061589	1
0	4680	7608.334931538709	2
0	4683	7614.187108053239	3
0	4686	7615.009933062468	4
0	4689	7616.300644825667	3
0	4691	7620.974385150186	4
0	4694	7624.038233252872	3
0	4696	7629.740480236257	2
0	4698	7636.86206503925	1
0	4700	7637.188955997675	2
0	4703	7637.957050456137	1
0	4705	7651.386940989638	0
0	4707	7659.633367444565	1
0	4710	7662.785411322241	2
0	4713	7663.982626077145	1
0	4715	7666.003523089412	2
0	4718	7667.869917331521	1
0	4720	7670.739240581612	2
0	4723	7675.548077414069	3
0	4726	7676.917280821272	4
0	4729	7681.848181278399	3
0	4731	7683.078245799042	4
0	4734	7690.317889417696	3
0	4736	7690.685934468984	2
0	4738	7692.45973162773	3
0	4741	7694.392877691763	4
0	4744	7695.894599196027	3
0	4746	7697.308249019476	4
0	4749	7701.898198335529	3
0	4751	7704.61680463807	4
0	4754	7705.346005201044	5
0	4757	7705.46777838705	4
0	4759	7715.518761057437	5
0	4762	7717.085589607268	4
0	4764	7717.917893188308	5
0	4767	7722.528622820506	6
0	4770	7722.641288806255	5
0	4772	7723.800061140869	6
0	4775	7724.297636298215	5
0	4777	7724.826503920968	4
0	4779	7726.942474083513	3
0	4781	7727.070266582212	4
0	4784	7727.216777886215	3
0	4786	7730.681110703521	4
0	4789	7733.174058620945	5
0	4792	7733.827372859496	6
0	4795	7734.734449315961	7
0	4798	7736.832505777268	8
0	4800	7739.919189489602	9
0	4802	7746.416814593089	10
0	4804	7751.338785135922	11
0	4806	7754.681019411762	10
0	4809	7757.002778316542	9
0	4812	7757.124891216727	10
0	4814	7759.550185868418	11
0	4816	7760.330833315847	12
0	4818	7767.732216434374	11
0	4821	7773.076892418191	10
0	4824	7775.021033085279	9
0	4827	7780.404635792942	8
0	4830	7786.226501149634	7
0	4833	7796.712180203932	8
0	4835	7797.748639479733	9
0	4837	7797.845996891534	8
0	4840	7798.403641247297	9
0	4842	7803.595479311527	10
0	4844	7804.430394795096	9
0	4847	7812.679224575086	8
0	4850	7817.140288258503	7
0	4853	7832.293256221574	6
0	4855	7835.212764531136	7
0	4858	7839.453740892361	6
0	4860	7841.45407579929	5
0	4862	7849.235575057952	4
0	4864	7850.014845188175	5
0	4867	7854.336523924888	4
0	4869	7860.478987312084	5
0	4872	7866.614419313427	4
0	4874	7872.408947803956	5
0	4877	7884.363059848875	4
0	4879	7884.916061562296	5
0	4882	7891.708334113293	6
0	4885	7894.723285670101	7
0	4888	7908.203200972403	8
0	4890	7908.372988928273	7
0	4893	7919.057885521862	8
0	4895	7923.323256861212	7
0	4898	7923.651311333012	6
0	4900	7939.042358733549	5
0	4902	7951.197977934447	6
0	4905	7951.357002654864	7
0	4908	7953.148742316234	8
0	4910	7954.643476202607	9
0	4912	7958.931792202459	8
0	4915	7963.087797607326	9
0	4917	7965.687855228395	10
0	4919	7969.2314942192	11
0	4921	7978.634349159635	10
0	4924	7984.038061186347	11
0	4926	7988.548247187329	10
0	4929	7989.611280079757	9
0	4932	7990.660582602288	8
0	4935	7994.620081813329	9
0	4937	7997.760033327643	8
0	4940	8003.111127032929	9
0	4942	8003.701882592984	8
0	4945	8008.235109587513	9
0	4947	8008.316710865348	10
0	4949	8011.150922208837	9
0	4952	8013.951045541887	10
0	4954	8017.153792702385	11
0	4956	8038.406811843018	12
0	4958	8041.056888453753	13
0	4960	8044.518766396775	12
0	4963	8045.335402313362	11
0	4966	8045.80819168676	10
0	4969	8047.05881985018	11
0	4971	8048.765647114282	10
0	4974	8052.860388017367	9
0	4977	8053.978905740647	10
0	4979	8055.695004232905	11
0	4981	8056.452048273934	10
0	4984	8058.305895388976	9
0	4987	8080.289832762463	8
0	4990	8085.355264758364	9
0	4992	8086.195843571033	8
0	4995	8088.370299131993	9
0	4997	8089.304144445835	10
0	4999	8090.899600288802	9
0	5002	8094.483531020788	10
0	5004	8101.929081169331	9
0	5007	8102.616872653658	10
0	5009	8106.148937333162	11
0	5011	8106.875101825216	12
0	5013	8109.542114938328	11
0	5016	8114.963353141451	12
0	5018	8116.401682831297	11
0	5021	8118.950495518134	10
0	5024	8119.260317420408	11
0	5026	8125.312854207368	12
0	5028	8128.605669431966	11
0	5031	8137.124326782884	10
0	5034	8138.513826729683	9
0	5037	8139.78792495086	10
0	5039	8141.259014031361	11
0	5041	8141.686647761218	10
0	5044	8152.694152953664	11
0	5046	8153.273085702218	10
0	5049	8160.674358810942	11
0	5051	8162.079246876088	12
0	5053	8163.33017328427	11
0	5056	8164.371432754729	12
0	5058	8165.171134876308	13
0	5060	8173.199849937269	14
0	5062	8184.566808005408	13
0	5065	8193.935395784301	12
0	5068	8196.72912517829	13
0	5070	8197.029715046709	12
0	5073	8199.074285967113	11
0	5076	8199.762510866096	10
0	5079	8207.212344530158	9
0	5082	8207.26647358176	10
0	5084	8210.574455045329	9
0	5087	8212.363987518318	10
0	5089	8218.028917027001	9
0	5092	8221.334746092777	10
0	5094	8225.380767676887	9
0	5097	8231.498321597902	8
0	5100	8232.109857770377	7
0	5103	8234.924573062985	8
0	5105	8236.902739309335	7
0	5108	8237.113360697019	8
0	5110	8237.221004305282	9
0	5112	8237.910597721866	10
0	5114	8240.520172611266	11
0	5116	8249.129101457802	12
0	5118	8259.151958829304	13
0	5120	8261.500884597793	12
0	5123	8262.7845502938	11
0	5126	8265.495682438503	10
0	5129	8267.427780557819	11
0	5131	8268.862975013267	12
0	5133	8283.489275385916	13
0	5135	8286.963317435968	12
0	5138	8291.825012578125	11
0	5141	8294.421833219338	12
0	5143	8295.925571618927	11
0	5146	8298.262266499293	10
0	5149	8300.094970294264	9
0	5152	8300.796533457452	8
0	5155	8305.527775692128	7
0	5158	8308.883331477067	6
0	5160	8309.72707424883	5
0	5162	8311.40253170083	6
0	5165	8313.128015616486	5
0	5167	8315.385170211633	6
0	5170	8320.171591029812	7
0	5173	8323.496025242536	6
0	5175	8328.432349217409	5
0	5177	8332.822354690939	4
0	5179	8345.20749586113	5
0	5182	8348.656151202153	6
0	5185	8352.896545996458	5
0	5187	8355.528408951269	4
0	5189	8355.897428045617	5
0	5192	8358.153793832916	6
0	5195	8359.958209689452	7
0	5198	8376.018868556628	8
0	5200	8378.934168253377	9
0	5202	8379.200563190972	8
0	5205	8384.135113808509	9
0	5207	8384.74661581743	10
0	5209	8388.056358822082	9
0	5212	8389.223696103568	8
0	5215	8391.154152005316	9
0	5217	8394.446283767027	8
0	5220	8401.113627361558	7
0	5223	8402.380915264114	8
0	5225	8407.05809172656	7
0	5228	8409.202889769785	6
0	5230	8415.19719552608	5
0	5232	8417.763855921874	4
0	5234	8419.483897825167	3
0	5236	8425.421930639234	4
0	5239	8429.278618356311	5
0	5242	8432.768081253766	4
0	5244	8443.175809504638	3
0	5246	8445.53132048335	4
0	5249	8446.751994509134	3
0	5251	8447.504087504923	4
0	5254	8453.711619901395	5
0	5257	8456.939834069777	4
0	5259	8462.223191074759	5
0	5262	8465.513162169152	4
0	5264	8472.13809601904	3
0	5266	8475.109079286802	2
0	5268	8501.808143660114	3
0	5271	8507.213750471432	4
0	5274	8507.58946237324	5
0	5277	8509.404264752845	6
0	5280	8511.185409705893	7
0	5283	8514.324831173207	8
0	5285	8526.141084466185	7
0	5288	8527.85181703901	6
0	5290	8528.139678075096	5
0	5292	8529.74121700679	4
0	5294	8534.053664732812	3
0	5296	8535.637173041384	4
0	5299	8538.692995926201	5
0	5302	8540.772374584389	4
0	5304	8541.06256481668	5
0	5307	8542.213627093056	6
0	5310	8548.899445800024	7
0	5313	8554.336293051619	6
0	5315	8558.932546016574	5
0	5317	8558.979602920709	4
0	5319	8559.769695078331	3
0	5321	8572.965723499881	2
0	5323	8574.725298263836	1
0	5325	8576.128273929074	2
0	5328	8583.324645338168	3
0	5331	8586.139998732495	4
0	5334	8588.558729724984	5
0	5337	8600.323460473358	6
0	5340	8606.099663618087	5
0	5342	8606.539470078837	4
0	5344	8609.452531940465	3
0	5346	8609.851957500865	4
0	5349	8611.82038470336	3
0	5351	8619.367213694109	4
0	5354	8619.380318601245	5
0	5357	8623.454887242964	4
0	5359	8633.122268032777	5
0	5362	8642.809277616405	6
0	5365	8652.818369875772	5
0	5367	8665.000937222297	4
0	5369	8670.614155063596	5
0	5372	8677.385886556771	6
0	5375	8686.091226442307	5
0	5377	8687.88167265179	6
0	5380	8688.632379000605	7
0	5383	8690.943401414404	6
0	5385	8691.842799063638	7
0	5388	8693.350249932606	6
0	5390	8701.595728209497	7
0	5393	8702.56844206012	8
0	5395	8704.975567067705	7
0	5398	8705.987582428401	8
0	5400	8709.969850046294	7
0	5403	8714.762288398638	6
0	5405	8719.343348925839	7
0	5408	8721.600978738006	8
0	5410	8722.203282585874	9
0	5412	8724.566317731321	8
0	5415	8726.260848053089	9
0	5417	8733.240548259789	8
0	5420	8740.084736249385	9
0	5422	8741.403671178865	10
0	5424	8745.393954051813	9
0	5427	8749.754796124237	10
0	5429	8754.081199584482	11
0	5431	8756.953360387531	10
0	5434	8757.947447375818	9
0	5437	8759.663760725338	8
0	5440	8761.53609777878	9
0	5442	8761.581086041163	8
0	5445	8766.194676975591	7
0	5448	8766.345114628867	6
0	5450	8769.536812031637	5
0	5452	8772.591546770237	6
0	5455	8779.288368786191	5
0	5457	8782.334469182322	4
0	5459	8782.811591901419	3
0	5461	8784.929154568291	2
0	5463	8794.87305369452	3
0	5466	8796.708673962443	4
0	5469	8797.728246414774	5
0	5472	8798.951810757078	6
0	5475	8801.239605351778	5
0	5477	8802.00731059005	6
0	5480	8803.771766073168	5
0	5482	8810.053191219571	4
0	5484	8815.486553484094	3
0	5486	8816.114689476204	4
0	5489	8817.08330112087	5
0	5492	8817.676433414464	4
0	5494	8819.331741500707	3
0	5496	8821.681193929244	4
0	5499	8824.577343290211	5
0	5502	8840.619416021198	6
0	5505	8848.585013692704	5
0	5507	8852.990748433676	6
0	5510	8855.038129086341	7
0	5513	8869.095194012567	6
0	5515	8872.411892652591	7
0	5518	8890.068028795358	8
0	5520	8896.087855830652	9
0	5522	8898.687829212436	8
0	5525	8908.018926076505	7
0	5528	8913.674679188895	6
0	5530	8921.398641316813	5
0	5532	8925.078793307088	4
0	5534	8930.347877567272	5
0	5537	8934.654795393846	4
0	5539	8954.329357943593	3
0	5541	8960.170948618823	2
0	5543	8961.097698764616	3
0	5546	8961.600478287622	2
0	5548	8979.505947906291	3
0	5551	8988.252166611246	4
0	5554	8989.084563826997	5
0	5557	8994.905602076955	4
0	5559	8998.904044603008	5
0	5562	9008.506135547358	4
0	5564	9012.64973309623	5
0	5567	9021.867948116494	4
0	5569	9022.506206343425	5
0	5572	9029.80123230189	4
0	5574	9036.820496982014	3
0	5576	9053.932933835336	2
0	5578	9055.017551954579	3
0	5581	9058.241279643524	2
0	5583	9062.325841710986	3
0	5586	9062.406881589015	4
0	5589	9075.586865042836	5
0	5592	9078.040233942433	4
0	5594	9082.429247249488	3
0	5596	9086.591536450115	4
0	5599	9090.191425075823	3
0	5601	9100.668121908845	4
0	5604	9103.805023624476	5
0	5607	9106.346174023817	6
0	5610	9117.147969913517	7
0	5613	9119.987772975045	6
0	5615	9123.024528509273	5
0	5617	9124.089613199862	4
0	5619	9132.792759011068	3
0	5621	9135.544822665314	2
0	5623	9135.567150895602	3
0	5626	9140.282814761585	4
0	5629	9142.484767112284	5
0	5632	9142.589719939904	6
0	5635	9144.886825851896	5
0	5637	9146.416741143429	6
0	5640	9147.266894596049	5
0	5642	9147.892087297339	6
0	5645	9157.201344423221	5
0	5647	9160.779075023855	4
0	5649	9161.198350372577	5
0	5652	9167.471551370779	4
0	5654	9170.91332653001	5
0	5657	9172.854362270964	4
0	5659	9173.714949692689	5
0	5662	9174.22010846577	6
0	5665	9174.289386745016	7
0	5668	9175.644618836335	8
0	5670	9188.385386379858	7
0	5673	9196.918658403751	6
0	5675	9201.423885743697	7
0	5678	9206.278762892018	6
0	5680	9208.742755123371	5
0	5682	9209.494617778473	4
0	5684	9224.316874956977	5
0	5687	9225.98982479728	4
0	5689	9229.237759662929	3
0	5691	9237.722474941522	4
0	5694	9240.818377553693	5
0	5697	9247.939930419355	4
0	5699	9249.627493977537	5
0	5702	9250.826025840605	4
0	5704	9258.348657246133	3
0	5706	9259.138726819868	2
0	5708	9270.109166648052	3
0	5711	9276.506549550783	4
0	5714	9280.543914380949	3
0	5716	9283.907253261795	4
0	5719	9289.209275153265	3
0	5721	9314.679120222454	2
0	5723	9320.4774320799	1
0	5725	9323.543812930939	2
0	5728	9341.923269366468	3
0	5731	9345.759581463517	4
0	5734	9351.184257247725	5
0	5737	9356.498452752844	4
0	5739	9360.813860268138	3
0	5741	9368.41186098827	4
0	5744	9370.706413973496	5
0	5747	9372.493781903467	4
0	5749	9379.614202204842	5
0	5752	9380.465977735697	4
0	5754	9381.256627062817	3
0	5756	9385.246122799307	4
0	5759	9386.601854757165	5
0	5762	9386.712717866538	6
0	5765	9387.461678879919	7
0	5768	9387.963152872604	8
0	5770	9388.27962149502	7
0	5773	9388.422059695329	8
0	5775	9388.713286986186	9
0	5777	9391.132144904605	10
0	5779	9392.251148498678	9
0	5782	9396.267242312109	8
0	5785	9405.238633233321	7
0	5788	9409.936865034621	6
0	5790	9411.716345542031	7
0	5793	9413.654780816819	6
0	5795	9418.137770141062	7
0	5798	9422.914327204216	6
0	5800	9423.804503916505	5
0	5802	9435.772751476619	6
0	5805	9440.91161018227	5
0	5807	9441.985351798765	4
0	5809	9448.446943804035	5
0	5812	9450.635298846673	4
0	5814	9452.614087742689	3
0	5816	9453.172299152789	4
0	5819	9457.163326492532	3
0	5821	9459.784696208208	2
0	5823	9479.212183084352	1
0	5825	9495.198236679976	2
0	5828	9508.503301479717	1
0	5830	9519.522387023084	2
0	5833	9523.792073085267	3
0	5836	9526.918334452904	4
0	5839	9527.35825804078	3
0	5841	9527.831542458683	4
0	5844	9532.185917122269	3
0	5846	9536.182099829412	2
0	5848	9536.928817010342	3
0	5851	9537.782213074818	4
0	5854	9547.890633461953	3
0	5856	9554.165133859643	4
0	5859	9562.872077678954	5
0	5862	9563.237635858474	6
0	5865	9565.985951054031	7
0	5868	9567.695926349315	8
0	5870	9572.461307570511	9
0	5872	9573.493387657521	8
0	5875	9581.835082438001	7
0	5878	9581.963258274143	6
0	5880	9584.472829090403	7
0	5883	9586.380481990979	8
0	5885	9586.993723818247	9
0	5887	9587.560516909539	8
0	5890	9592.730815733007	7
0	5893	9593.117529899402	6
0	5895	9596.838844273101	7
0	5898	9609.838400769925	6
0	5900	9610.379192020916	7
0	5903	9610.48079668108	8
0	5905	9616.188146644407	9
0	5907	9618.1012569295	8
0	5910	9623.261736667151	7
0	5913	9626.719469068195	6
0	5915	9630.823565150524	7
0	5918	9631.309112061917	6
0	5920	9639.896265965023	5
0	5922	9640.073185424117	6
0	5925	9644.400338591183	5
0	5927	9651.271340005002	6
0	5930	9652.99160545776	7
0	5933	9663.945885417292	8
0	5935	9664.124317440128	7
0	5938	9666.157847684096	6
0	5940	9667.312193146978	5
0	5942	9674.969853575673	4
0	5944	9675.669624922631	3
0	5946	9679.960382891577	4
0	5949	9680.353321815269	3
0	5951	9685.533594927986	4
0	5954	9685.819681176637	3
0	5956	9688.409271021582	4
0	5959	9707.184004733299	3
0	5961	9709.089645187841	4
0	5964	9722.213707163693	3
0	5966	9725.915005606351	2
0	5968	9729.475959468305	1
0	5970	9732.648681227166	2
0	5973	9739.377610733966	1
0	5975	9740.904211123937	2
0	5978	9748.557430128866	3
0	5981	9753.244850827584	4
0	5984	9760.672737380331	5
0	5987	9769.294833654581	4
0	5989	9769.602258974611	3
0	5991	9777.634377422716	4
0	5994	9779.061024023653	3
0	5996	9781.044129346653	4
0	5999	9781.165021188887	3
0	6001	9784.998295449806	4
0	6004	9787.04308029159	3
0	6006	9797.120756018849	2
0	6008	9800.518809780554	1
0	6010	9800.636491390262	2
0	6013	9805.992160024295	3
0	6016	9806.01455289304	4
0	6019	9806.231638689247	3
0	6021	9824.102716948398	2
0	6023	9838.934393524707	3
0	6026	9840.135765330556	4
0	6029	9843.44711448134	3
0	6031	9852.882276578247	2
0	6033	9866.057154240953	3
0	6036	9868.710529162593	4
0	6039	9874.671151181925	3
0	6041	9874.761180781585	4
0	6044	9875.456255962466	5
0	6047	9875.974847112525	6
0	6050	9877.20832407074	7
0	6053	9877.419761236331	8
0	6055	9879.157084825796	7
0	6058	9880.111032058856	8
0	6060	9883.013830693859	9
0	6062	9890.439385239227	8
0	6065	9892.519671037012	7
0	6068	9895.87264089815	8
0	6070	9896.946554093911	7
0	6073	9902.153161162655	6
0	6075	9909.775082212969	7
0	6078	9917.351651750075	8
0	6080	9919.286328022012	9
0	6082	9924.335589155949	8
0	6085	9933.758784456421	7
0	6088	9936.587132413131	8
0	6090	9948.25806655324	7
0	6093	9958.445571051583	6
0	6095	9965.772389503983	5
0	6097	9968.447370749266	4
0	6099	9988.912518498522	3
0	6101	9991.390931815553	4
0	6104	9993.19006534015	3
0	6106	9999.646036105202	2
0	6108	10002.673040527536	3
0	6111	10013.249643963608	4
0	6114	10014.152152627037	5
0	6117	10014.356528334456	4
0	6119	10021.757691618367	5
0	6122	10022.043126735832	6
0	6125	10028.029195658136	7
0	6128	10030.859565391995	6
0	6130	10038.244100632576	5
0	6132	10043.422407570495	4
0	6134	10049.733479206141	5
0	6137	10050.741631171606	6
0	6140	10053.860892690418	7
0	6143	10056.148842356038	6
0	6145	10057.64027100658	5
0	6147	10058.464443608341	6
0	6150	10060.653672118461	5
0	6152	10062.450848896082	4
0	6154	10063.547685493268	3
0	6156	10065.369231702614	2
0	6158	10067.179565258126	1
0	6160	10086.931846562816	2
0	6163	10089.844731347767	3
0	6166	10100.632717954725	4
0	6169	10105.146390568215	5
0	6172	10105.835146070165	6
0	6175	10109.534908320243	7
0	6178	10113.113909223281	8
0	6180	10120.020363287369	7
0	6183	10126.88146630513	8
0	6185	10132.840349655288	7
0	6188	10133.572941709221	8
0	6190	10142.963434293129	7
0	6193	10144.0579835394	6
0	6195	10144.281185206089	5
0	6197	10155.32194359898	4
0	6199	10158.349298589151	5
0	6202	10158.846216104023	4
0	6204	10159.919393134388	3
0	6206	10165.5321246513	2
0	6208	10186.490224214559	3
0	6211	10188.821808263563	4
0	6214	10192.77457825653	3
0	6216	10193.899805851993	2
0	6218	10205.31642442858	3
0	6221	10210.590185669002	4
0	6224	10212.129185696615	3
0	6226	10220.311067746631	4
0	6229	10222.259166514843	5
0	6232	10223.636620394867	6
0	6235	10223.748790605997	5
0	6237	10231.621515735251	6
0	6240	10237.978777190505	5
0	6242	10239.156715023355	6
0	6245	10242.466026368003	5
0	6247	10244.579533091213	6
0	6250	10248.67340274756	7
0	6253	10250.550835029551	6
0	6255	10253.387589131222	7
0	6258	10257.605387585765	8
0	6260	10258.789183039042	7
0	6263	10262.456647646935	6
0	6265	10267.594082785663	7
0	6268	10274.560069613782	6
0	6270	10277.186109797381	7
0	6273	10278.040904616949	6
0	6275	10279.791239882038	5
0	6277	10281.666965176959	6
0	6280	10284.459369442808	5
0	6282	10293.394360933997	4
0	6284	10297.416974002712	3
0	6286	10302.253420773132	2
0	6288	10303.399316400396	1
0	6290	10304.053417165173	2
0	6293	10317.926553633397	3
0	6296	10326.101767401036	4
0	6299	10326.618397124943	3
0	6301	10338.250330113792	4
0	6304	10339.351204323382	5
0	6307	10339.478021465716	6
0	6310	10342.791658522028	7
0	6313	10343.663203549632	6
0	6315	10356.421328532045	5
0	6317	10363.776472837968	4
0	6319	10367.338285145038	3
0	6321	10376.171429130922	4
0	6324	10380.594550006379	5
0	6327	10383.563880002084	4
0	6329	10387.532847705949	5
0	6332	10387.592275825744	4
0	6334	10388.019305149962	3
0	6336	10388.882921928331	4
0	6339	10391.684963675943	3
0	6341	10392.329713766598	2
0	6343	10399.263493469018	3
0	6346	10400.873891262633	4
0	6349	10405.795280345025	5
0	6352	10419.337951578142	4
0	6354	10421.196808317793	5
0	6357	10425.616983616749	4
0	6359	10430.861972392482	5
0	6362	10437.525773210573	6
0	6365	10438.373075343325	7
0	6368	10440.200416905012	8
0	6370	10440.982678250056	7
0	6373	10441.766301070227	6
0	6375	10442.299210291189	5
0	6377	10442.993844233603	6
0	6380	10450.16889790605	7
0	6383	10458.815637596318	6
0	6385	10460.120516621433	7
0	6388	10463.13089245106	6
0	6390	10466.255330266255	5
0	6392	10469.541685274694	6
0	6395	10470.376636010763	5
0	6397	10471.772524292816	6
0	6400	10472.077255271145	5
0	6402	10483.657091971333	6
0	6405	10486.615524758787	5
0	6407	10493.566849169886	6
0	6410	10497.62107561585	5
0	6412	10507.519671408066	6
0	6415	10510.411279107456	5
0	6417	10515.474786967021	6
0	6420	10518.124025481029	5
0	6422	10518.16904934532	4
0	6424	10528.601316960715	5
0	6427	10532.015996686376	6
0	6430	10552.889806464246	5
0	6432	10553.330656674835	4
0	6434	10558.609734269384	3
0	6436	10564.003417242224	2
0	6438	10580.004772370009	3
0	6441	10583.54419706762	2
0	6443	10584.700134690101	3
0	6446	10585.760577779184	4
0	6449	10587.698827162944	5
0	6452	10589.64522826586	6
0	6455	10592.616769301534	7
0	6458	10601.732611046307	6
0	6460	10602.956847483361	5
0	6462	10603.5175879999	6
0	6465	10607.395040611878	5
0	6467	10616.463435712115	6
0	6470	10617.782566703177	5
0	6472	10620.589536384833	4
0	6474	10623.767534289097	5
0	6477	10623.821305975065	6
0	6480	10631.507839872421	5
0	6482	10633.138563805214	4
0	6484	10641.73047502822	5
0	6487	10657.259001483424	6
0	6490	10658.18564446113	5
0	6492	10662.361728847997	4
0	6494	10664.001332823232	5
0	6497	10677.052767994699	4
0	6499	10684.33270844032	3
0	6501	10686.823987892507	4
0	6504	10693.035179054271	5
0	6507	10699.214815291983	6
0	6510	10706.612248532807	7
0	6513	10709.666441622845	8
0	6515	10712.97231521138	9
0	6517	10718.442220742735	8
0	6520	10720.882672310298	7
0	6523	10723.08221411948	8
0	6525	10725.305134808648	7
0	6528	10727.395298151754	8
0	6530	10731.414906068312	9
0	6532	10736.306683563541	10
0	6534	10736.556560326715	9
0	6537	10736.67327996846	8
0	6540	10739.151311996278	7
0	6543	10742.96490706697	6
0	6545	10750.536608943252	7
0	6548	10752.520855169106	6
0	6550	10768.851943595392	5
0	6552	10775.709466094945	6
0	6555	10778.138997708735	7
0	6558	10779.565162782798	6
0	6560	10786.521123553639	5
0	6562	10791.318886943701	4
0	6564	10810.616175246691	5
0	6567	10812.052781762467	6
0	6570	10813.55612674271	7
0	6573	10815.357492501269	8
0	6575	10823.528276007326	7
0	6578	10828.613191381228	6
0	6580	10833.624595186246	5
0	6582	10837.330668560083	4
0	6584	10848.533522681032	5
0	6587	10851.338608233962	6
0	6590	10852.513224620971	5
0	6592	10853.867557941802	4
0	6594	10854.048047027876	3
0	6596	10857.134842473452	4
0	6599	10858.297510623042	5
0	6602	10871.437418820167	6
0	6605	10878.349549204262	7
0	6608	10879.103524050762	8
0	6610	10880.085394214707	9
0	6612	10888.840503605854	8
0	6615	10897.910964170853	7
0	6618	10898.099855687703	8
0	6620	10900.500677375843	9
0	6622	10904.398324910974	8
0	6625	10915.406312049222	9
0	6627	10915.65030161567	8
0	6630	10916.499366309147	7
0	6633	10916.927695930803	6
0	6635	10919.747597913858	5
0	6637	10923.274511827669	6
0	6640	10924.784604832671	5
0	6642	10928.808495598605	6
0	6645	10930.034221063505	5
0	6647	10931.703739933454	4
0	6649	10936.899778704928	3
0	6651	10942.463400828504	4
0	6654	10946.540149510942	3
0	6656	10950.959715002892	4
0	6659	10958.62118663295	5
0	6662	10968.48743389432	4
0	6664	10974.901923951774	3
0	6666	10975.662052445364	2
0	6668	10978.971072402958	1
0	6670	10982.416421323755	2
0	6673	10987.267014154112	3
0	6676	10998.828700569053	4
0	6679	11012.761880125839	3
0	6681	11013.128895511469	4
0	6684	11018.504569581318	5
0	6687	11019.838843757097	4
0	6689	11020.796824642303	3
0	6691	11021.917217736564	4
0	6694	11022.962738313085	3
0	6696	11029.038220878603	4
0	6699	11030.83321985413	5
0	6702	11045.944970315139	6
0	6705	11050.535850337926	5
0	6707	11054.988525449093	4
0	6709	11055.502470945294	5
0	6712	11061.068495365698	4
0	6714	11061.936736149302	5
0	6717	11066.649402726859	4
0	6719	11072.812292704327	5
0	6722	11074.301189421796	6
0	6725	11081.337387537342	7
0	6728	11082.06201506944	8
0	6730	11084.909247561834	9
0	6732	11086.018901708378	10
0	6734	11087.983281530848	11
0	6736	11089.650802149481	10
0	6739	11097.875318020039	9
0	6742	11098.021109178428	8
0	6745	11112.626561643778	7
0	6748	11113.996486588332	6
0	6750	11116.882942812338	5
0	6752	11118.722724096943	4
0	6754	11121.627350886813	3
0	6756	11122.346414260375	4
0	6759	11123.926833100235	5
0	6762	11125.566678752516	6
0	6765	11125.664244426675	5
0	6767	11129.862447906679	4
0	6769	11130.435664365761	3
0	6771	11134.147063960728	2
0	6773	11138.082937407556	3
0	6776	11138.457311712875	4
0	6779	11141.42841735735	5
0	6782	11150.008024681053	4
0	6784	11150.579961506791	3
0	6786	11159.259284976974	4
0	6789	11164.139966947524	3
0	6791	11164.695955561805	4
0	6794	11169.199513897969	3
0	6796	11174.504088404555	2
0	6798	11179.15577813288	3
0	6801	11185.313363614485	2
0	6803	11193.422522557824	1
0	6805	11196.885686890311	0
0	6807	11205.509409011419	1
0	6810	11210.471155319729	2
0	6813	11219.55476824972	3
0	6816	11223.832199932507	4
0	6819	11224.780383155041	3
0	6821	11226.192628041476	4
0	6824	11228.599868049463	3
0	6826	11238.197296786638	4
0	6829	11238.36548121493	3
0	6831	11240.215977202914	4
0	6834	11243.357548213968	5
0	6837	11248.608690523029	6
0	6840	11250.554148811453	5
0	6842	11251.406283571134	6
0	6845	11257.499556890551	7
0	6848	11259.134772833637	6
0	6850	11273.338309059103	7
0	6853	11276.60872457636	6
0	6855	11279.193907657843	7
0	6858	11279.350929223487	8
0	6860	11279.632096822091	7
0	6863	11279.951162139837	6
0	6865	11285.964934560038	7
0	6868	11291.179687090117	6
0	6870	11294.873078884996	7
0	6873	11296.066471706294	6
0	6875	11302.245159258313	5
0	6877	11305.526221468734	4
0	6879	11306.475582215185	5
0	6882	11308.462607598631	6
0	6885	11312.817116956199	7
0	6888	11315.128414732724	6
0	6890	11315.329030239012	5
0	6892	11321.570791095248	6
0	6895	11325.107029415497	7
0	6898	11327.223017523933	6
0	6900	11329.601817495212	7
0	6903	11330.230270965469	6
0	6905	11332.440714403161	5
0	6907	11335.999038394025	4
0	6909	11338.013602727805	5
0	6912	11338.460127226833	6
0	6915	11340.327895909311	7
0	6918	11342.17543591324	6
0	6920	11343.921814659886	5
0	6922	11345.902383206712	4
0	6924	11346.881286269696	5
0	6927	11348.209195781916	6
0	6930	11349.91020063542	5
0	6932	11351.006444130576	6
0	6935	11351.859009865023	7
0	6938	11352.059528515479	8
0	6940	11353.99778668755	9
0	6942	11359.07488582948	8
0	6945	11360.462776929272	7
0	6948	11362.00663072014	6
0	6950	11364.08662652637	5
0	6952	11368.452528185122	4
0	6954	11374.771025380454	5
0	6957	11377.809492198643	6
0	6960	11379.103205516436	5
0	6962	11381.511631680461	6
0	6965	11385.007718228726	7
0	6968	11385.490396128624	6
0	6970	11389.343668872742	5
0	6972	11395.129931992872	6
0	6975	11395.951280028879	5
0	6977	11405.314688266112	4
0	6979	11407.38260220163	5
0	6982	11413.558608007757	4
0	6984	11418.682295752953	5
0	6987	11432.866736174265	6
0	6990	11437.555027819056	7
0	6993	11439.743319046326	8
0	6995	11440.258194106753	7
0	6998	11444.96456540009	6
0	7000	11452.033986595728	7
0	7003	11453.800888315348	8
0	7005	11461.430232781666	7
0	7008	11463.03316133262	8
0	7010	11463.309853944882	9
0	7012	11466.61550933505	8
0	7015	11474.993100127832	9
0	7017	11478.910109964765	10
0	7019	11483.759833058701	9
0	7022	11484.560246462029	8
0	7025	11485.821288820084	7
0	7028	11489.157118538578	6
0	7030	11490.01593192762	7
0	7033	11509.980713713756	8
0	7035	11510.692356434669	7
0	7038	11516.773803056444	8
0	7040	11517.571155647996	7
0	7043	11519.252117347505	6
0	7045	11519.889762626757	5
0	7047	11521.405049416801	4
0	7049	11539.06936913082	3
0	7051	11543.370507488685	2
0	7053	11546.749640430998	1
0	7055	11549.910127662313	0
0	7057	11554.94098932344	1
0	7060	11557.542703226125	2
0	7063	11563.177545674276	3
0	7066	11567.693153726877	4
0	7069	11569.723553888654	5
0	7072	11581.839848300102	6
0	7075	11582.522696185435	7
0	7078	11586.04579958409	6
0	7080	11587.03631778681	7
0	7083	11587.740326049324	6
0	7085	11596.234840111471	5
0	7087	11601.198652384849	6
0	7090	11602.895126242103	7
0	7093	11606.187285422307	6
0	7095	11610.546812331531	5
0	7097	11613.287649278348	6
0	7100	11615.483859096275	7
0	7103	11616.96020910222	8
0	7105	11617.030239256983	7
0	7108	11630.496692687638	6
0	7110	11632.891427121705	7
0	7113	11636.158930882392	8
0	7115	11638.622905274266	9
0	7117	11643.332328904143	8
0	7120	11643.806117424131	7
0	7123	11644.260537839478	6
0	7125	11645.067303736009	7
0	7128	11645.255803720761	6
0	7130	11646.010893650607	7
0	7133	11650.354653657526	8
0	7135	11660.965249645621	9
0	7137	11663.86627656057	10
0	7139	11667.623818059883	9
0	7142	11668.168824445845	8
0	7145	11669.963917380205	9
0	7147	11677.991774731675	8
0	7150	11687.385861293674	7
0	7153	11687.735534116029	6
0	7155	11695.104458978194	7
0	7158	11695.30078370478	6
0	7160	11696.789368216106	5
0	7162	11699.673466939079	6
0	7165	11702.043241905414	5
0	7167	11702.350614356256	4
0	7169	11713.624211382543	5
0	7172	11715.2060738201	4
0	7174	11718.35310581003	5
0	7177	11738.38085444477	6
0	7180	11740.433557947825	5
0	7182	11745.012326602909	4
0	7184	11756.676146603325	5
0	7187	11756.99256131896	6
0	7190	11761.823881963006	7
0	7193	11764.192510508391	8
0	7195	11770.627328794182	9
0	7197	11772.884066947008	8
0	7200	11773.570902273773	9
0	7202	11776.700320846127	10
0	7204	11780.492200710669	9
0	7207	11780.879676743133	8
0	7210	11784.585458511849	7
0	7213	11788.83578092095	6
0	7215	11789.371189733882	5
0	7217	11790.190704004444	4
0	7219	11796.921350454349	5
0	7222	11805.797188800797	4
0	7224	11808.328426257334	5
0	7227	11808.916987650131	4
0	7229	11829.750150743405	3
0	7231	11830.707564043089	4
0	7234	11841.002145069982	5
0	7237	11841.955582102556	4
0	7239	11847.427895910915	3
0	7241	11850.746051474313	4
0	7244	11856.314357035874	5
0	7247	11857.532039740879	6
0	7250	11859.406274117031	7
0	7253	11866.530473812841	6
0	7255	11878.285089088466	7
0	7258	11887.486874473343	8
0	7260	11889.392181264355	7
0	7263	11890.779733479959	6
0	7265	11892.032488872164	5
0	7267	11899.129590011702	4
0	7269	11906.789127514955	3
0	7271	11915.677984072697	4
0	7274	11922.041858510449	5
0	7277	11926.976826854031	4
0	7279	11927.332478597275	5
0	7282	11929.701246918217	6
0	7285	11932.958898101188	7
0	7288	11933.041291992796	6
0	7290	11934.444558634062	5
0	7292	11940.178407093301	4
0	7294	11943.211947947884	5
0	7297	11944.604781379835	6
0	7300	11947.274876286824	7
0	7303	11953.36292597652	8
0	7305	11956.082844411577	9
0	7307	11957.536060132695	8
0	7310	11957.773980554183	7
0	7313	11958.055989731487	6
0	7315	11960.791546068051	5
0	7317	11965.071554848518	4
0	7319	11979.62513836209	3
0	7321	11980.011352352843	4
0	7324	11981.21664606228	5
0	7327	11983.450858587495	6
0	7330	11985.821745619875	5
0	7332	11986.662386801397	4
0	7334	11987.254896343695	3
0	7336	11997.904026469576	2
0	7338	12000.485733867341	3
0	7341	12002.313944473446	2
0	7343	12004.721621491377	3
0	7346	12016.500482029884	4
0	7349	12024.051600404329	3
0	7351	12036.121854099321	4
0	7354	12047.507870787094	5
0	7357	12048.19709015202	4
0	7359	12048.424660978534	3
0	7361	12058.20950107191	2
0	7363	12060.104044635073	3
0	7366	12062.183370582154	4
0	7369	12063.924080814813	3
0	7371	12069.40268815589	2
0	7373	12076.328165414496	3
0	7376	12077.632980725183	4
0	7379	12077.782011819694	5
0	7382	12083.659494369927	6
0	7385	12085.073894259008	7
0	7388	12089.803914271474	6
0	7390	12095.243067867392	5
0	7392	12101.92025623967	4
0	7394	12102.065597126915	3
0	7396	12102.61048151431	4
0	7399	12109.48865221694	5
0	7402	12119.737231648713	6
0	7405	12123.50510647189	5
0	7407	12123.94300724376	6
0	7410	12126.741779176399	5
0	7412	12130.190770188957	6
0	7415	12131.02367047785	7
0	7418	12131.956936189933	8
0	7420	12132.237862023751	7
0	7423	12133.62621499917	8
0	7425	12134.473061903234	7
0	7428	12135.447003608875	6
0	7430	12137.6419764485	5
0	7432	12148.954800784491	4
0	7434	12154.001852833078	5
0	7437	12164.505851280155	6
0	7440	12164.933843150253	5
0	7442	12167.465054284645	6
0	7445	12173.815927963006	7
0	7448	12180.630340750255	8
0	7450	12184.388938512678	9
0	7452	12188.628264067462	10
0	7454	12196.019570585773	9
0	7457	12197.140172426058	8
0	7460	12199.354299294751	9
0	7462	12200.135425484163	10
0	7464	12200.59438833245	9
0	7467	12210.220828568976	10
0	7469	12217.01130299335	9
0	7472	12217.279743583585	8
0	7475	12218.0260508363	9
0	7477	12221.827619786143	8
0	7480	12226.190722573609	7
0	7483	12232.298613531844	6
0	7485	12233.862900912964	7
0	7488	12240.781114189503	8
0	7490	12250.813680008116	7
0	7493	12256.37097478172	8
0	7495	12256.44808233221	9
0	7497	12259.268001095979	10
0	7499	12259.373411762555	9
0	7502	12259.475770319578	8
0	7505	12262.50501528474	9
0	7507	12264.290250047071	8
0	7510	12265.5487325776	9
0	7512	12265.800388448177	10
0	7514	12273.367199170797	9
0	7517	12273.680121703054	10
0	7519	12278.665504043637	9
0	7522	12279.217769598397	8
0	7525	12283.129201480667	7
0	7528	12286.463165786307	8
0	7530	12287.45344486729	9
0	7532	12289.480061170719	10
0	7534	12290.632439999449	11
0	7536	12291.836715506399	10
0	7539	12296.371682117178	11
0	7541	12315.323713756286	10
0	7544	12318.619785430498	9
0	7547	12320.301011742682	10
0	7549	12321.798185317868	11
0	7551	12323.610946662828	10
0	7554	12329.073507991368	9
0	7557	12333.380622356007	10
0	7559	12337.048441669949	11
0	7561	12338.023190399815	10
0	7564	12339.538273255037	9
0	7567	12340.502006753595	10
0	7569	12342.87760591555	9
0	7572	12348.875373557544	10
0	7574	12349.812215226666	11
0	7576	12350.602937710133	10
0	7579	12352.722838368687	11
0	7581	12355.600158649786	12
0	7583	12355.64975382683	13
0	7585	12356.568638084868	12
0	7588	12357.130977882011	11
0	7591	12357.431034546469	12
0	7593	12362.466279379771	11
0	7596	12368.928448084206	12
0	7598	12377.721972260942	11
0	7601	12378.053987324758	10
0	7604	12378.870924678614	11
0	7606	12383.654988944325	12
0	7608	12403.66671759076	13
0	7610	12409.658652913505	14
0	7612	12409.98600115217	15
0	7614	12418.00664792278	14
0	7617	12418.662692060356	13
0	7620	12426.804957639302	14
0	7622	12427.800355466459	15
0	7624	12432.168584589179	14
0	7627	12433.813663339935	13
0	7630	12438.091375619408	12
0	7633	12438.411660309793	11
0	7636	12438.880755527698	10
0	7639	12447.522058813438	9
0	7642	12453.842191020113	8
0	7645	12458.220555376215	7
0	7648	12459.36888407287	6
0	7650	12466.180761773229	5
0	7652	12470.160179726683	6
0	7655	12480.915595344055	5
0	7657	12487.292616009902	4
0	7659	12488.077329033861	3
0	7661	12495.065176773829	2
0	7663	12497.072612866787	3
0	7666	12497.933318212435	4
0	7669	12499.515257327307	5
0	7672	12502.021318550225	6
0	7675	12502.832866686474	5
0	7677	12503.247502423755	4
0	7679	12505.373641271027	3
0	7681	12505.811974824711	2
0	7683	12508.747655198966	3
0	7686	12511.102266142122	2
0	7688	12518.674161765559	3
0	7691	12528.902167519066	2
0	7693	12536.024350658993	3
0	7696	12544.547765630577	2
0	7698	12547.620850491006	1
0	7700	12562.180909436968	2
0	7703	12562.819524444391	3
0	7706	12569.567102504379	2
0	7708	12574.842217248407	3
0	7711	12589.408242058896	4
0	7714	12589.919998431644	5
0	7717	12597.065432166868	4
0	7719	12598.277136853515	3
0	7721	12601.001360452352	4
0	7724	12605.028133532218	5
0	7727	12609.014526952163	4
0	7729	12609.950098835401	3
0	7731	12614.839524769812	2
0	7733	12619.682508594658	1
0	7735	12621.54940866444	2
0	7738	12633.496511311954	3
0	7741	12638.991311885813	2
0	7743	12639.319033958101	3
0	7746	12641.840271649492	4
0	7749	12647.060453136192	3
0	7751	12648.153644735381	4
0	7754	12658.062336545123	5
0	7757	12660.307419204829	6
0	7760	12661.320107064349	7
0	7763	12665.306971166726	8
0	7765	12671.129017610588	7
0	7768	12673.716274055787	6
0	7770	12676.91767927953	5
0	7772	12677.513367131433	6
0	7775	12682.446024885363	5
0	7777	12685.670081438774	4
0	7779	12689.924513760025	5
0	7782	12690.936114676973	6
0	7785	12694.043167384343	7
0	7788	12699.522041734253	6
0	7790	12705.625600571781	7
0	7793	12706.983472751433	6
0	7795	12709.319915225574	5
0	7797	12715.607761453681	4
0	7799	12718.759886314476	5
0	7802	12737.153670272016	6
0	7805	12740.139366081907	5
0	7807	12741.655961814447	6
0	7810	12747.125171353277	5
0	7812	12756.409008085063	4
0	7814	12769.656134935294	3
0	7816	12769.938051206745	2
0	7818	12777.814435198783	1
0	7820	12788.821954418823	2
0	7823	12794.069867165019	3
0	7826	12799.738594037567	2
0	7828	12800.413204725364	3
0	7831	12807.027942889492	4
0	7834	12811.800055219651	3
0	7836	12817.74847461805	2
0	7838	12819.643706453189	3
0	7841	12819.790945259333	4
0	7844	12822.850918355646	3
0	7846	12823.632043103962	2
0	7848	12842.76837242192	1
0	7850	12850.343742048366	0
0	7852	12865.189680341408	1
0	7855	12876.061061313331	2
0	7858	12885.619871744138	1
0	7860	12894.156236815241	2
0	7863	12901.550586644133	3
0	7866	12910.208557395706	4
0	7869	12911.582755744594	3
0	7871	12912.250486603686	4
0	7874	12918.377752832122	3
0	7876	12920.972878408477	4
0	7879	12930.078622377174	5
0	7882	12938.293082200706	4
0	7884	12939.951215024113	5
0	7887	12948.18352310739	6
0	7890	12953.088855979792	5
0	7892	12953.213596137441	6
0	7895	12955.462393121134	7
0	7898	12965.245595778074	6
0	7900	12966.282433589251	5
0	7902	12971.078108214176	4
0	7904	12983.145928499096	3
0	7906	12989.155617096866	2
0	7908	12999.154795744511	3
0	7911	13005.109632561826	4
0	7914	13006.568541308181	5
0	7917	13011.698549183371	4
0	7919	13019.802905426043	3
0	7921	13041.976215950203	2
0	7923	13050.621882634327	1
0	7925	13059.156377987002	2
0	7928	13061.863641949701	3
0	7931	13065.029563401027	2
0	7933	13089.709981968955	3
0	7936	13090.390851632706	4
0	7939	13101.362793473353	3
0	7941	13112.935083537316	2
0	7943	13114.310753222833	3
0	7946	13115.40983667398	2
0	7948	13118.217166807157	3
0	7951	13125.90291716987	4
0	7954	13133.875572644446	5
0	7957	13135.471958526366	4
0	7959	13138.665610094163	5
0	7962	13147.397526523793	4
0	7964	13156.982520689457	5
0	7967	13159.082105685741	4
0	7969	13159.739600781579	5
0	7972	13160.249716683795	4
0	7974	13163.341686779932	5
0	7977	13167.225109773133	4
0	7979	13171.318435262913	3
0	7981	13177.733465793363	2
0	7983	13179.544969569797	3
0	7986	13180.593831667744	2
0	7988	13184.521887917337	3
0	7991	13199.168754576129	2
0	7993	13202.124950373788	3
0	7996	13209.181125508718	2
[...]
1	6885	11312.817116956199	0
1	6888	11315.128414732724	0
1	6890	11315.329030239012	0
1	6892	11321.570791095248	0
1	6895	11325.107029415497	0
1	6898	11327.223017523933	0
1	6900	11329.601817495212	0
1	6903	11330.230270965469	0
1	6905	11332.440714403161	0
1	6907	11335.999038394025	0
1	6909	11338.013602727805	0
1	6912	11338.460127226833	0
1	6915	11340.327895909311	0
1	6918	11342.17543591324	0
1	6920	11343.921814659886	0
1	6922	11345.902383206712	0
1	6924	11346.881286269696	0
1	6927	11348.209195781916	0
1	6930	11349.91020063542	0
1	6932	11351.006444130576	0
1	6935	11351.859009865023	0
1	6938	11352.059528515479	1
1	6940	11353.99778668755	2
1	6942	11359.07488582948	1
1	6945	11360.462776929272	0
1	6948	11362.00663072014	0
1	6950	11364.08662652637	0
1	6952	11368.452528185122	0
1	6954	11374.771025380454	0
1	6957	11377.809492198643	0
1	6960	11379.103205516436	0
1	6962	11381.511631680461	0
1	6965	11385.007718228726	0
1	6968	11385.490396128624	0
1	6970	11389.343668872742	0
1	6972	11395.129931992872	0
1	6975	11395.951280028879	0
1	6977	11405.314688266112	0
1	6979	11407.38260220163	0
1	6982	11413.558608007757	0
1	6984	11418.682295752953	0
1	6987	11432.866736174265	0
1	6990	11437.555027819056	0
1	6993	11439.743319046326	1
1	6995	11440.258194106753	0
1	6998	11444.96456540009	0
1	7000	11452.033986595728	0
1	7003	11453.800888315348	1
1	7005	11461.430232781666	0
1	7008	11463.03316133262	1
1	7010	11463.309853944882	2
1	7012	11466.61550933505	1
1	7015	11474.993100127832	2
1	7017	11478.910109964765	3
1	7019	11483.759833058701	2
1	7022	11484.560246462029	1
1	7025	11485.821288820084	0
1	7028	11489.157118538578	0
1	7030	11490.01593192762	0
1	7033	11509.980713713756	1
1	7035	11510.692356434669	0
1	7038	11516.773803056444	1
1	7040	11517.571155647996	0
1	7043	11519.252117347505	0
1	7045	11519.889762626757	0
1	7047	11521.405049416801	0
1	7049	11539.06936913082	0
1	7051	11543.370507488685	0
1	7053	11546.749640430998	0
1	7055	11549.910127662313	0
1	7057	11554.94098932344	0
1	7060	11557.542703226125	0
1	7063	11563.177545674276	0
1	7066	11567.693153726877	0
1	7069	11569.723553888654	0
1	7072	11581.839848300102	0
1	7075	11582.522696185435	0
1	7078	11586.04579958409	0
1	7080	11587.03631778681	0
1	7083	11587.740326049324	0
1	7085	11596.234840111471	0
1	7087	11601.198652384849	0
1	7090	11602.895126242103	0
1	7093	11606.187285422307	0
1	7095	11610.546812331531	0
1	7097	11613.287649278348	0
1	7100	11615.483859096275	0
1	7103	11616.96020910222	1
1	7105	11617.030239256983	0
1	7108	11630.496692687638	0
1	7110	11632.891427121705	0
1	7113	11636.158930882392	1
1	7115	11638.622905274266	2
1	7117	11643.332328904143	1
1	7120	11643.806117424131	0
1	7123	11644.260537839478	0
1	7125	11645.067303736009	0
1	7128	11645.255803720761	0
1	7130	11646.010893650607	0
1	7133	11650.354653657526	1
1	7135	11660.965249645621	2
1	7137	11663.86627656057	3
1	7139	11667.623818059883	2
1	7142	11668.168824445845	1
1	7145	11669.963917380205	2
1	7147	11677.991774731675	1
1	7150	11687.385861293674	0
1	7153	11687.735534116029	0
1	7155	11695.104458978194	0
1	7158	11695.30078370478	0
1	7160	11696.789368216106	0
1	7162	11699.673466939079	0
1	7165	11702.043241905414	0
1	7167	11702.350614356256	0
1	7169	11713.624211382543	0
1	7172	11715.2060738201	0
1	7174	11718.35310581003	0
1	7177	11738.38085444477	0
1	7180	11740.433557947825	0
1	7182	11745.012326602909	0
1	7184	11756.676146603325	0
1	7187	11756.99256131896	0
1	7190	11761.823881963006	0
1	7193	11764.192510508391	1
1	7195	11770.627328794182	2
1	7197	11772.884066947008	1
1	7200	11773.570902273773	2
1	7202	11776.700320846127	3
1	7204	11780.492200710669	2
1	7207	11780.879676743133	1
1	7210	11784.585458511849	0
1	7213	11788.83578092095	0
1	7215	11789.371189733882	0
1	7217	11790.190704004444	0
1	7219	11796.921350454349	0
1	7222	11805.797188800797	0
1	7224	11808.328426257334	0
1	7227	11808.916987650131	0
1	7229	11829.750150743405	0
1	7231	11830.707564043089	0
1	7234	11841.002145069982	0
1	7237	11841.955582102556	0
1	7239	11847.427895910915	0
1	7241	11850.746051474313	0
1	7244	11856.314357035874	0
1	7247	11857.532039740879	0
1	7250	11859.406274117031	0
1	7253	11866.530473812841	0
1	7255	11878.285089088466	0
1	7258	11887.486874473343	1
1	7260	11889.392181264355	0
1	7263	11890.779733479959	0
1	7265	11892.032488872164	0
1	7267	11899.129590011702	0
1	7269	11906.789127514955	0
1	7271	11915.677984072697	0
1	7274	11922.041858510449	0
1	7277	11926.976826854031	0
1	7279	11927.332478597275	0
1	7282	11929.701246918217	0
1	7285	11932.958898101188	0
1	7288	11933.041291992796	0
1	7290	11934.444558634062	0
1	7292	11940.178407093301	0
1	7294	11943.211947947884	0
1	7297	11944.604781379835	0
1	7300	11947.274876286824	0
1	7303	11953.36292597652	1
1	7305	11956.082844411577	2
1	7307	11957.536060132695	1
1	7310	11957.773980554183	0
1	7313	11958.055989731487	0
1	7315	11960.791546068051	0
1	7317	11965.071554848518	0
1	7319	11979.62513836209	0
1	7321	11980.011352352843	0
1	7324	11981.21664606228	0
1	7327	11983.450858587495	0
1	7330	11985.821745619875	0
1	7332	11986.662386801397	0
1	7334	11987.254896343695	0
1	7336	11997.904026469576	0
1	7338	12000.485733867341	0
1	7341	12002.313944473446	0
1	7343	12004.721621491377	0
1	7346	12016.500482029884	0
1	7349	12024.051600404329	0
1	7351	12036.121854099321	0
1	7354	12047.507870787094	0
1	7357	12048.19709015202	0
1	7359	12048.424660978534	0
1	7361	12058.20950107191	0
1	7363	12060.104044635073	0
1	7366	12062.183370582154	0
1	7369	12063.924080814813	0
1	7371	12069.40268815589	0
1	7373	12076.328165414496	0
1	7376	12077.632980725183	0
1	7379	12077.782011819694	0
1	7382	12083.659494369927	0
1	7385	12085.073894259008	0
1	7388	12089.803914271474	0
1	7390	12095.243067867392	0
1	7392	12101.92025623967	0
1	7394	12102.065597126915	0
1	7396	12102.61048151431	0
1	7399	12109.48865221694	0
1	7402	12119.737231648713	0
1	7405	12123.50510647189	0
1	7407	12123.94300724376	0
1	7410	12126.741779176399	0
1	7412	12130.190770188957	0
1	7415	12131.02367047785	0
1	7418	12131.956936189933	1
1	7420	12132.237862023751	0
1	7423	12133.62621499917	1
1	7425	12134.473061903234	0
1	7428	12135.447003608875	0
1	7430	12137.6419764485	0
1	7432	12148.954800784491	0
1	7434	12154.001852833078	0
1	7437	12164.505851280155	0
1	7440	12164.933843150253	0
1	7442	12167.465054284645	0
1	7445	12173.815927963006	0
1	7448	12180.630340750255	1
1	7450	12184.388938512678	2
1	7452	12188.628264067462	3
1	7454	12196.019570585773	2
1	7457	12197.140172426058	1
1	7460	12199.354299294751	2
1	7462	12200.135425484163	3
1	7464	12200.59438833245	2
1	7467	12210.220828568976	3
1	7469	12217.01130299335	2
1	7472	12217.279743583585	1
1	7475	12218.0260508363	2
1	7477	12221.827619786143	1
1	7480	12226.190722573609	0
1	7483	12232.298613531844	0
1	7485	12233.862900912964	0
1	7488	12240.781114189503	1
1	7490	12250.813680008116	0
1	7493	12256.37097478172	1
1	7495	12256.44808233221	2
1	7497	12259.268001095979	3
1	7499	12259.373411762555	2
1	7502	12259.475770319578	1
1	7505	12262.50501528474	2
1	7507	12264.290250047071	1
1	7510	12265.5487325776	2
1	7512	12265.800388448177	3
1	7514	12273.367199170797	2
1	7517	12273.680121703054	3
1	7519	12278.665504043637	2
1	7522	12279.217769598397	1
1	7525	12283.129201480667	0
1	7528	12286.463165786307	1
1	7530	12287.45344486729	2
1	7532	12289.480061170719	3
1	7534	12290.632439999449	4
1	7536	12291.836715506399	3
1	7539	12296.371682117178	4
1	7541	12315.323713756286	3
1	7544	12318.619785430498	2
1	7547	12320.301011742682	3
1	7549	12321.798185317868	4
1	7551	12323.610946662828	3
1	7554	12329.073507991368	2
1	7557	12333.380622356007	3
1	7559	12337.048441669949	4
1	7561	12338.023190399815	3
1	7564	12339.538273255037	2
1	7567	12340.502006753595	3
1	7569	12342.87760591555	2
1	7572	12348.875373557544	3
1	7574	12349.812215226666	4
1	7576	12350.602937710133	3
1	7579	12352.722838368687	4
1	7581	12355.600158649786	5
1	7583	12355.64975382683	6
1	7585	12356.568638084868	5
1	7588	12357.130977882011	4
1	7591	12357.431034546469	5
1	7593	12362.466279379771	4
1	7596	12368.928448084206	5
1	7598	12377.721972260942	4
1	7601	12378.053987324758	3
1	7604	12378.870924678614	4
1	7606	12383.654988944325	5
1	7608	12403.66671759076	6
1	7610	12409.658652913505	7
1	7612	12409.98600115217	8
1	7614	12418.00664792278	7
1	7617	12418.662692060356	6
1	7620	12426.804957639302	7
1	7622	12427.800355466459	8
1	7624	12432.168584589179	7
1	7627	12433.813663339935	6
1	7630	12438.091375619408	5
1	7633	12438.411660309793	4
1	7636	12438.880755527698	3
1	7639	12447.522058813438	2
1	7642	12453.842191020113	1
1	7645	12458.220555376215	0
1	7648	12459.36888407287	0
1	7650	12466.180761773229	0
1	7652	12470.160179726683	0
1	7655	12480.915595344055	0
1	7657	12487.292616009902	0
1	7659	12488.077329033861	0
1	7661	12495.065176773829	0
1	7663	12497.072612866787	0
1	7666	12497.933318212435	0
1	7669	12499.515257327307	0
1	7672	12502.021318550225	0
1	7675	12502.832866686474	0
1	7677	12503.247502423755	0
1	7679	12505.373641271027	0
1	7681	12505.811974824711	0
1	7683	12508.747655198966	0
1	7686	12511.102266142122	0
1	7688	12518.674161765559	0
1	7691	12528.902167519066	0
1	7693	12536.024350658993	0
1	7696	12544.547765630577	0
1	7698	12547.620850491006	0
1	7700	12562.180909436968	0
1	7703	12562.819524444391	0
1	7706	12569.567102504379	0
1	7708	12574.842217248407	0
1	7711	12589.408242058896	0
1	7714	12589.919998431644	0
1	7717	12597.065432166868	0
1	7719	12598.277136853515	0
1	7721	12601.001360452352	0
1	7724	12605.028133532218	0
1	7727	12609.014526952163	0
1	7729	12609.950098835401	0
1	7731	12614.839524769812	0
1	7733	12619.682508594658	0
1	7735	12621.54940866444	0
1	7738	12633.496511311954	0
1	7741	12638.991311885813	0
1	7743	12639.319033958101	0
1	7746	12641.840271649492	0
1	7749	12647.060453136192	0
1	7751	12648.153644735381	0
1	7754	12658.062336545123	0
1	7757	12660.307419204829	0
1	7760	12661.320107064349	0
1	7763	12665.306971166726	1
1	7765	12671.129017610588	0
1	7768	12673.716274055787	0
1	7770	12676.91767927953	0
1	7772	12677.513367131433	0
1	7775	12682.446024885363	0
1	7777	12685.670081438774	0
1	7779	12689.924513760025	0
1	7782	12690.936114676973	0
1	7785	12694.043167384343	0
1	7788	12699.522041734253	0
1	7790	12705.625600571781	0
1	7793	12706.983472751433	0
1	7795	12709.319915225574	0
1	7797	12715.607761453681	0
1	7799	12718.759886314476	0
1	7802	12737.153670272016	0
1	7805	12740.139366081907	0
1	7807	12741.655961814447	0
1	7810	12747.125171353277	0
1	7812	12756.409008085063	0
1	7814	12769.656134935294	0
1	7816	12769.938051206745	0
1	7818	12777.814435198783	0
1	7820	12788.821954418823	0
1	7823	12794.069867165019	0
1	7826	12799.738594037567	0
1	7828	12800.413204725364	0
1	7831	12807.027942889492	0
1	7834	12811.800055219651	0
1	7836	12817.74847461805	0
1	7838	12819.643706453189	0
1	7841	12819.790945259333	0
1	7844	12822.850918355646	0
1	7846	12823.632043103962	0
1	7848	12842.76837242192	0
1	7850	12850.343742048366	0
1	7852	12865.189680341408	0
1	7855	12876.061061313331	0
1	7858	12885.619871744138	0
1	7860	12894.156236815241	0
1	7863	12901.550586644133	0
1	7866	12910.208557395706	0
1	7869	12911.582755744594	0
1	7871	12912.250486603686	0
1	7874	12918.377752832122	0
1	7876	12920.972878408477	0
1	7879	12930.078622377174	0
1	7882	12938.293082200706	0
1	7884	12939.951215024113	0
1	7887	12948.18352310739	0
1	7890	12953.088855979792	0
1	7892	12953.213596137441	0
1	7895	12955.462393121134	0
1	7898	12965.245595778074	0
1	7900	12966.282433589251	0
1	7902	12971.078108214176	0
1	7904	12983.145928499096	0
1	7906	12989.155617096866	0
1	7908	12999.154795744511	0
1	7911	13005.109632561826	0
1	7914	13006.568541308181	0
1	7917	13011.698549183371	0
1	7919	13019.802905426043	0
1	7921	13041.976215950203	0
1	7923	13050.621882634327	0
1	7925	13059.156377987002	0
1	7928	13061.863641949701	0
1	7931	13065.029563401027	0
1	7933	13089.709981968955	0
1	7936	13090.390851632706	0
1	7939	13101.362793473353	0
1	7941	13112.935083537316	0
1	7943	13114.310753222833	0
1	7946	13115.40983667398	0
1	7948	13118.217166807157	0
1	7951	13125.90291716987	0
1	7954	13133.875572644446	0
1	7957	13135.471958526366	0
1	7959	13138.665610094163	0
1	7962	13147.397526523793	0
1	7964	13156.982520689457	0
1	7967	13159.082105685741	0
1	7969	13159.739600781579	0
1	7972	13160.249716683795	0
1	7974	13163.341686779932	0
1	7977	13167.225109773133	0
1	7979	13171.318435262913	0
1	7981	13177.733465793363	0
1	7983	13179.544969569797	0
1	7986	13180.593831667744	0
1	7988	13184.521887917337	0
1	7991	13199.168754576129	0
1	7993	13202.124950373788	0
1	7996	13209.181125508718	0
1	7998	13210.973779935112	0
1	8001	13235.088114645494	0
1	8003	13241.877426620964	0
1	8006	13244.093152604736	0
1	8009	13247.029870943986	0
1	8012	13247.339423411599	0
1	8014	13249.879218574124	0
1	8017	13251.169124322008	0
1	8020	13258.754834283019	0
1	8022	13260.367876711709	0
1	8024	13261.3704061232	0
1	8026	13263.279318501927	0
1	8028	13268.627777180054	0
1	8030	13270.826572419135	0
1	8033	13282.299243976741	0
1	8036	13285.79256473347	0
1	8039	13286.278957978442	0
1	8041	13291.498785141328	0
1	8044	13305.301637217743	0
1	8047	13308.247546094925	0
1	8050	13309.530677803385	0
1	8052	13310.581248803814	0
1	8055	13311.834167042038	0
1	8057	13315.532198329961	0
1	8059	13322.512442800243	0
1	8061	13340.617465207961	0
1	8063	13346.189307429902	0
1	8066	13350.025038746799	0
1	8068	13352.147896227012	0
1	8071	13354.935628985601	0
1	8073	13363.367485589109	0
1	8076	13365.944533234203	0
1	8079	13368.137496759096	0
1	8082	13371.222915949194	0
1	8084	13372.712070404683	0
1	8087	13376.255386346642	0
1	8089	13378.20611969639	0
1	8091	13388.088015562115	0
1	8094	13389.533918490607	0
1	8097	13395.401605660751	0
1	8099	13397.292368734279	0
1	8102	13410.00707064777	0
1	8105	13411.989709643387	0
1	8107	13413.193879220452	0
1	8110	13413.692702018723	0
1	8113	13415.27315058194	0
1	8115	13416.290926596558	0
1	8118	13416.526683801921	0
1	8120	13419.458035338101	0
1	8122	13426.975916398641	0
1	8125	13432.706594506707	0
1	8127	13436.773644327409	0
1	8130	13437.557694643756	0
1	8133	13439.053916071729	0
1	8135	13439.160312483681	0
1	8137	13439.925087617824	0
1	8140	13441.705788455213	0
1	8143	13449.103132859368	0
1	8145	13452.904490356156	0
1	8147	13457.045949729061	0
1	8150	13459.874212395443	0
1	8152	13460.823761623307	0
1	8154	13460.90386914902	0
1	8157	13478.295263884467	0
1	8159	13479.397611813367	0
1	8161	13479.669358398162	0
1	8164	13483.446734592928	0
1	8167	13490.90311745145	0
1	8169	13493.004636765502	0
1	8171	13493.329717945021	0
1	8174	13500.406680464663	0
1	8177	13501.54565686131	0
1	8179	13509.796087032674	0
1	8181	13539.964344344193	0
1	8183	13544.882150333732	0
1	8186	13546.087145096913	0
1	8189	13546.511537037765	0
1	8192	13549.582185016663	0
1	8194	13551.45458322685	0
1	8197	13556.279944873445	0
1	8199	13558.760480861833	0
1	8201	13586.675357281723	0
1	8204	13587.707676565225	0
1	8206	13595.960583434132	0
1	8209	13603.826370765683	0
1	8211	13604.925853586726	0
1	8213	13614.120521000403	0
1	8215	13615.142302215376	0
1	8218	13617.087374295486	0
1	8221	13619.097691743109	0
1	8223	13624.314593594628	0
1	8226	13627.056929545884	0
1	8228	13661.295492047786	0
1	8231	13661.817322050649	0
1	8234	13664.694647769568	0
1	8236	13669.161786518312	0
1	8238	13669.348925407059	0
1	8240	13684.41471268679	0
1	8243	13697.527969772034	0
1	8246	13712.419740332896	0
1	8249	13716.925099590758	0
1	8252	13722.004010170684	0
1	8255	13724.6240936149	0
1	8257	13729.532554789267	0
1	8260	13731.738603660824	0
1	8263	13733.001950516135	0
1	8265	13734.110947615088	0
1	8267	13736.442276779158	0
1	8269	13739.334232484968	0
1	8271	13741.017874596089	0
1	8274	13745.182344694141	0
1	8276	13751.300177837018	0
1	8279	13755.976191208337	0
1	8281	13758.507680503979	0
1	8284	13764.915808587151	0
1	8286	13773.787606234899	0
1	8288	13774.802258097697	0
1	8291	13775.097886467353	0
1	8294	13776.39781630773	0
1	8297	13784.584998425803	0
1	8300	13786.060064325655	0
1	8302	13787.588053516505	0
1	8304	13788.581881394503	0
1	8307	13790.415782042577	0
1	8309	13791.093521369561	0
1	8312	13800.332843136881	0
1	8314	13804.255456601095	0
1	8317	13808.344173009528	0
1	8319	13814.290232126324	0
1	8321	13814.794796054705	0
1	8323	13824.035382504621	0
1	8325	13825.895894013442	0
1	8328	13828.403219616826	0
1	8331	13829.107820658953	0
1	8334	13849.151628841664	0
1	8337	13852.096059458759	0
1	8340	13855.390218891629	0
1	8343	13862.024748389718	0
1	8345	13863.58462251182	0
1	8348	13864.909181377309	1
1	8350	13865.874623338277	0
1	8353	13872.244533814687	0
1	8355	13874.939207977814	0
1	8358	13877.567233727006	0
1	8360	13877.858467271272	0
1	8362	13884.747559412513	0
1	8364	13886.457899002995	0
1	8366	13891.358029777534	0
1	8368	13900.764937409348	0
1	8371	13902.733436877598	0
1	8373	13903.268294172855	0
1	8376	13903.845012488223	0
1	8378	13911.526993479511	0
1	8381	13920.744531274614	0
1	8384	13924.530045496001	0
1	8386	13927.157005977054	0
1	8389	13927.203023583786	0
1	8392	13938.92639679539	0
1	8395	13943.315172082048	0
1	8398	13945.684985915175	0
1	8400	13947.119591284706	0
1	8402	13948.479088865589	0
1	8404	13950.137707584316	0
1	8406	13956.151659183832	0
1	8408	13962.92765036884	0
1	8410	13970.208532085208	0
1	8412	13977.021010303682	0
1	8415	13980.673722993761	0
1	8418	13982.681087725388	0
1	8421	13983.017715740335	0
1	8424	13993.879021257929	0
1	8426	13997.019870849104	0
1	8429	13997.724523575421	0
1	8431	14001.777292312516	0
1	8434	14006.193944312019	0
1	8437	14012.712196436577	0
1	8439	14013.377501520494	0
1	8441	14018.793833438071	0
1	8444	14022.957081142042	0
1	8447	14027.435465919102	0
1	8449	14029.660597863208	0
1	8452	14031.095384249385	0
1	8454	14032.679848833032	0
1	8457	14032.72152074938	0
1	8459	14035.568725107439	0
1	8461	14047.655329855798	0
1	8464	14055.9976356546	0
1	8467	14062.90130133021	0
1	8470	14063.979781470262	0
1	8472	14064.673282029522	0
1	8474	14065.491900045355	0
1	8476	14067.036539571934	0
1	8479	14094.927171796955	0
1	8481	14097.341113910198	0
1	8484	14099.54818446512	0
1	8487	14101.623520902989	0
1	8490	14102.282316981708	0
1	8492	14105.018580623727	0
1	8494	14111.151222755286	0
1	8496	14113.885820073721	0
1	8498	14115.872830040026	0
1	8501	14119.064883536079	0
1	8503	14131.772578954616	0
1	8506	14132.340117485276	0
1	8509	14134.525470419824	0
1	8511	14138.515296840295	0
1	8514	14138.723243003539	0
1	8516	14142.264238635932	0
1	8519	14157.948853640774	0
1	8521	14164.662228506324	0
1	8523	14166.558601612611	0
1	8525	14180.586509235566	0
1	8528	14180.662996122038	0
1	8531	14187.332162700944	0
1	8533	14188.848279551026	0
1	8535	14189.803231496802	0
1	8538	14203.1218900225	0
1	8541	14203.218418405609	0
1	8543	14212.082038098496	0
1	8546	14217.907702237967	0
1	8549	14223.133144904295	0
1	8552	14223.305606218806	0
1	8555	14225.33179601187	0
1	8558	14225.52556904007	1
1	8560	14225.701410571323	2
1	8562	14226.713832459267	1
1	8565	14232.491818032225	0
1	8568	14234.170237414581	0
1	8570	14237.516887818505	0
1	8573	14238.0738969237	0
1	8575	14249.777890502495	0
1	8578	14251.068036615681	0
1	8580	14251.746330346452	0
1	8582	14256.342886763435	0
1	8584	14262.350722568584	0
1	8587	14276.888747226642	0
1	8589	14277.200330506145	0
1	8591	14291.531107517613	0
1	8594	14294.132088976401	0
1	8597	14296.12322352947	0
1	8599	14299.914501321337	0
1	8602	14301.109885993585	0
1	8605	14301.710180713421	0
1	8607	14305.138808876766	0
1	8610	14306.700733379261	0
1	8612	14308.453916062517	0
1	8614	14328.30333903611	0
1	8617	14329.729131564257	0
1	8620	14330.572086477879	0
1	8622	14331.809480680882	0
1	8624	14337.061619137445	0
1	8626	14338.49782703655	0
1	8628	14339.184534527341	0
1	8631	14348.733143727402	0
1	8633	14355.682204798581	0
1	8636	14362.801356090182	0
1	8638	14364.533419473911	0
1	8641	14370.539318929992	0
1	8644	14373.341965546181	0
1	8646	14376.83266904488	0
1	8649	14378.631562338232	0
1	8652	14379.970401923576	0
1	8655	14385.666091812254	0
1	8658	14390.229578616546	0
1	8660	14390.425922408888	0
1	8663	14390.716148571369	1
1	8665	14394.765943690105	0
1	8668	14395.352287232105	0
1	8670	14395.962940898374	0
1	8673	14397.001449068189	0
1	8675	14397.463361232361	0

