version 2
run General-29-20191211-23:49:40-6378
attr configname General
attr datetime 20191211-23:49:40
attr experiment General
attr inifile omnetpp.ini
attr iterationvars ""
attr iterationvarsf ""
attr measurement ""
attr network Carrefour
attr processid 6378
attr repetition 29
attr replication #29
attr resultdir results
attr runnumber 29
attr seedset 29
param **.tillsNumber 7
param **.delta 0s
param **.policy 1
param **.capacity 0.3
param **.meanInterArrivalTime 8s
param **.meanItemsInACart 12
param **.interArrivalDistribution 0
param **.itemsInCartDistribution 0

vector 0 Carrefour.decider stats_numCustomers:vector ETV
attr "" ""
attr source numCustomers
vector 1 Carrefour.decider stats_numCustomersQueue:vector ETV
attr "" ""
attr source numCustomersQueue
0	704	1203.599463744587	3
0	706	1208.229862922769	4
0	709	1208.944850452444	3
0	711	1210.906095247824	4
0	714	1213.656002198244	5
0	717	1216.742937437046	6
0	720	1221.902272222877	5
0	722	1223.323304004561	4
0	724	1225.02694677829	5
0	727	1241.493793737744	6
0	730	1241.630423910377	5
0	732	1257.983721213945	6
0	735	1263.688312645999	7
0	738	1265.203863333133	6
0	740	1267.838038482575	5
0	742	1274.031077406151	4
0	744	1274.578666914811	3
0	746	1277.937762288215	4
0	749	1278.806924553739	5
0	752	1286.852292789951	4
0	754	1300.753155794135	3
0	756	1303.425739026663	2
0	758	1303.828885161913	1
0	760	1308.386543516843	2
0	763	1309.939241599961	1
0	765	1316.924955887528	2
0	768	1318.853417257183	3
0	771	1319.387957029169	4
0	774	1324.548116738281	5
0	777	1330.052640250289	4
0	779	1343.732930704116	3
0	781	1343.765268065752	4
0	784	1355.287719659763	5
0	787	1357.777978308225	4
0	789	1362.046211214353	5
0	792	1364.050900870833	6
0	795	1374.337734407239	5
0	797	1375.39500756961	6
0	800	1376.453865105157	5
0	802	1383.471733262228	4
0	804	1386.809118153447	5
0	807	1405.176510559432	4
0	809	1409.386564583193	5
0	812	1415.848317272054	4
0	814	1431.942658520482	3
0	816	1437.229691258303	4
0	819	1437.583435178567	5
0	822	1443.877420849447	4
0	824	1447.013114844824	5
0	827	1447.451484879762	6
0	830	1452.495482265208	5
0	832	1454.990359369129	4
0	834	1459.191298999902	3
0	836	1466.898589841825	2
0	838	1468.116020428782	3
0	841	1478.052457867232	4
0	844	1478.654820506113	5
0	847	1483.402180255044	4
0	849	1485.008232285589	5
0	852	1485.711052902628	4
0	854	1487.613174448583	5
0	857	1488.072500257307	4
0	859	1496.274336372639	5
0	862	1497.838493292765	6
0	865	1501.169117727278	7
0	868	1504.465818102424	6
0	870	1507.291875649052	5
0	872	1510.695128303085	6
0	875	1514.808890578819	7
0	878	1519.407476780054	8
0	880	1522.63199807458	7
0	883	1526.936960163564	8
0	885	1528.12832973681	9
0	887	1529.798672589731	8
0	890	1533.103903590961	7
0	893	1534.757742063636	6
0	895	1535.253682048682	5
0	897	1550.555549637147	4
0	899	1555.620926521997	5
0	902	1557.399266106795	6
0	905	1558.097173321858	7
0	908	1558.53628697728	8
0	910	1559.305974944052	7
0	913	1559.788097215665	8
0	915	1560.779642182777	9
0	917	1565.085115771374	10
0	919	1565.330233547704	11
0	921	1569.480691881612	10
0	924	1575.875782527683	11
0	926	1577.333400228803	10
0	929	1583.472305624912	11
0	931	1583.581382772343	10
0	934	1584.433397858244	9
0	937	1584.570180321952	10
0	939	1590.661391418381	11
0	941	1596.71308007676	10
0	944	1599.291208989959	9
0	947	1608.736877906309	10
0	949	1608.750716275682	11
0	951	1610.733086971862	12
0	953	1619.206769276605	11
0	956	1620.277691451041	10
0	959	1627.145763745055	9
0	962	1627.233169121665	8
0	965	1627.838161909472	7
0	968	1632.15705976535	6
0	970	1634.152258531181	7
0	973	1634.257571037538	8
0	975	1634.868010519047	7
0	978	1636.482312939061	6
0	980	1637.437139625558	7
0	983	1639.017175917695	8
0	985	1639.141629034732	7
0	988	1654.793098717283	8
0	990	1658.788548144383	9
0	992	1665.584062213606	8
0	995	1671.707243497009	7
0	998	1672.831432446068	6
0	1000	1673.950982830324	7
0	1003	1674.531005589141	8
0	1005	1687.309562186418	9
0	1007	1691.690479111035	8
0	1010	1699.368936173301	9
0	1012	1700.757799121682	10
0	1014	1703.354645329187	11
0	1016	1704.93463156126	10
0	1019	1705.417676792334	9
0	1022	1713.453822716141	10
0	1024	1715.305075872858	11
0	1026	1716.003929922621	12
0	1028	1716.646087418481	11
0	1031	1720.673671504974	10
0	1034	1721.869709917491	9
0	1037	1723.087383476829	8
0	1040	1723.886216120864	7
0	1043	1732.240819533505	8
0	1045	1734.348914502625	7
0	1048	1737.2187607517	8
0	1050	1737.559135719171	7
0	1053	1741.921030367675	8
0	1055	1746.345729453597	9
0	1057	1746.819845428231	8
0	1060	1746.869014057487	9
0	1062	1747.686099415786	8
0	1065	1747.830426262803	9
0	1067	1748.121631134779	8
0	1070	1752.183014181693	7
0	1073	1757.564193028393	8
0	1075	1759.305810585827	9
0	1077	1764.978649606358	8
0	1080	1766.153901860521	7
0	1083	1766.525208339663	6
0	1085	1767.468008158308	5
0	1087	1769.402785255749	6
0	1090	1772.848459203377	7
0	1093	1773.970665908825	8
0	1095	1780.452415161805	9
0	1097	1781.53447474261	10
0	1099	1782.836681325906	9
0	1102	1783.025792457423	8
0	1105	1785.888119989624	9
0	1107	1790.671141873299	8
0	1110	1794.751035200904	7
0	1113	1794.780201365305	6
0	1115	1795.877758219804	5
0	1117	1800.304808755696	4
0	1119	1800.672506681487	5
0	1122	1803.874903038344	6
0	1125	1816.562131000932	5
0	1127	1824.564273742342	4
0	1129	1826.031626559641	5
0	1132	1833.150019344062	6
0	1135	1833.67825683919	5
0	1137	1838.057159355005	6
0	1140	1844.772091998641	7
0	1143	1854.838229171633	6
0	1145	1854.983796863035	5
0	1147	1855.688455934427	4
0	1149	1856.292790002225	3
0	1151	1859.645260655389	2
0	1153	1865.156622147133	3
0	1156	1865.415107276503	2
0	1158	1879.616665159259	1
0	1160	1882.733256103392	2
0	1163	1888.704459066598	3
0	1166	1890.216982679315	2
0	1168	1893.583572593598	1
0	1170	1893.637339234998	2
0	1173	1901.276196594499	3
0	1176	1903.79077963116	2
0	1178	1905.787407735109	3
0	1181	1914.317958224033	2
0	1183	1933.375423916964	3
0	1186	1941.606353935019	4
0	1189	1948.546164906127	3
0	1191	1952.08297570828	2
0	1193	1980.550677936386	1
0	1195	1993.619929378883	2
0	1198	2005.282918247872	1
0	1200	2021.789354116064	2
0	1203	2034.203491897826	3
0	1206	2035.276646561395	4
0	1209	2036.368065399023	5
0	1212	2040.74348186084	6
0	1215	2045.776462762527	5
0	1217	2047.164899131948	6
0	1220	2052.890616680808	7
0	1223	2052.978056575785	8
0	1225	2071.96352779217	9
0	1227	2075.899172180995	8
0	1230	2076.398060280316	7
0	1233	2076.924272792017	6
0	1235	2090.112868512053	7
0	1238	2090.699727225333	8
0	1240	2093.901131858833	9
0	1242	2094.588840184771	10
0	1244	2104.455293277331	9
0	1247	2107.710379657492	10
0	1249	2107.752188064076	9
0	1252	2115.292161240414	8
0	1255	2121.921245774667	9
0	1257	2122.709419116606	8
0	1260	2131.88368819216	9
0	1262	2144.740725253485	8
0	1265	2146.130699038508	7
0	1268	2150.18087942151	6
0	1270	2151.416411214233	7
0	1273	2151.98416378339	8
0	1275	2152.460193878577	7
0	1278	2154.986542395757	8
0	1280	2162.438387743463	7
0	1283	2162.989958405089	8
0	1285	2166.439225326902	9
0	1287	2173.012105678027	10
0	1289	2175.265847124564	9
0	1292	2183.193495355932	8
0	1295	2191.153686606369	7
0	1298	2195.146651286306	6
0	1300	2207.074167134844	7
0	1303	2210.074495182262	8
0	1305	2210.772995746206	7
0	1308	2211.849208533252	6
0	1310	2215.501493549862	7
0	1313	2216.245594173502	8
0	1315	2218.744753154565	9
0	1317	2220.358814580219	8
0	1320	2221.659563320506	9
0	1322	2223.767035658629	8
0	1325	2224.945007639787	7
0	1328	2233.200654818332	6
0	1330	2239.698322783336	5
0	1332	2244.001668069352	4
0	1334	2247.298764233529	5
0	1337	2251.260991971841	4
0	1339	2255.859859367145	3
0	1341	2258.258683374667	4
0	1344	2259.193119446257	5
0	1347	2261.133975912167	6
0	1350	2264.438104297899	7
0	1353	2272.517262556083	6
0	1355	2282.463705543278	5
0	1357	2285.157810945789	6
0	1360	2287.553888839497	5
0	1362	2295.476422912766	6
0	1365	2297.495101125091	5
0	1367	2299.035156628069	6
0	1370	2300.790513907964	5
0	1372	2302.224090080336	6
0	1375	2302.798037696505	5
0	1377	2312.896497836677	4
0	1379	2318.765537478448	3
0	1381	2323.005176345322	2
0	1383	2337.327833522173	3
0	1386	2340.532579732829	4
0	1389	2343.166244610933	5
0	1392	2350.304356033364	6
0	1395	2351.235074486891	7
0	1398	2352.010130513496	6
0	1400	2360.053282495639	7
0	1403	2361.90597842393	8
0	1405	2363.316459179129	7
0	1408	2364.129536847076	6
0	1410	2364.671718527932	5
0	1412	2366.44498948985	4
0	1414	2367.490219270497	3
0	1416	2369.66091029846	4
0	1419	2377.399136080028	5
0	1422	2379.499423966038	4
0	1424	2380.914989099532	5
0	1427	2381.05574117726	6
0	1430	2383.811509993601	5
0	1432	2384.534086036684	4
0	1434	2384.740195164233	3
0	1436	2393.17911934972	4
0	1439	2396.524905097553	5
0	1442	2396.955428771445	4
0	1444	2423.444306042376	5
0	1447	2428.485730864466	6
0	1450	2429.183079215215	7
0	1453	2433.896935628174	6
0	1455	2437.278259987088	5
0	1457	2444.761499291261	4
0	1459	2444.86302269245	3
0	1461	2448.505530426988	4
0	1464	2455.299633915552	5
0	1467	2458.472997336847	4
0	1469	2465.924854892703	5
0	1472	2467.54966784149	6
0	1475	2484.583197380545	5
0	1477	2487.760159290326	6
0	1480	2490.99241488704	5
0	1482	2493.98201305168	4
0	1484	2509.732308481484	3
0	1486	2512.179038799762	4
0	1489	2516.150093138439	3
0	1491	2519.121648072911	4
0	1494	2527.765468985706	5
0	1497	2539.532793215303	6
0	1500	2539.900367594472	5
0	1502	2543.335382900343	6
0	1505	2545.674211319769	7
0	1508	2545.931407410867	6
0	1510	2546.359095273242	7
0	1513	2550.704843599864	8
0	1515	2551.549303426426	9
0	1517	2554.177453880026	8
0	1520	2558.558896287803	7
0	1523	2568.624291924012	6
0	1525	2569.269975792588	5
0	1527	2570.774733581958	6
0	1530	2572.447836172721	5
0	1532	2580.889659976232	4
0	1534	2585.444770206629	5
0	1537	2591.710560827304	4
0	1539	2595.11998626903	5
0	1542	2599.424890582954	4
0	1544	2601.563832228404	5
0	1547	2601.854101446864	4
0	1549	2619.274531246037	5
0	1552	2620.723379593127	4
0	1554	2622.898997398101	5
0	1557	2628.369462830749	4
0	1559	2629.42765114833	3
0	1561	2632.215993918818	4
0	1564	2644.688831820036	3
0	1566	2646.39650269323	4
0	1569	2656.79162550398	3
0	1571	2660.37583292855	4
0	1574	2666.89984912426	5
0	1577	2672.000052501707	4
0	1579	2673.643360840866	3
0	1581	2674.255921718618	2
0	1583	2677.111651042714	1
0	1585	2678.273497634189	2
0	1588	2695.7828193774	3
0	1591	2696.134083781854	2
0	1593	2699.070285192968	3
0	1596	2702.129507484947	2
0	1598	2703.353307951935	1
0	1600	2720.22078920167	0
0	1602	2721.072026012587	1
0	1605	2727.455053874357	2
0	1608	2735.294912567823	1
0	1610	2736.027144705732	2
0	1613	2754.302515631053	3
0	1616	2756.773719947702	4
0	1619	2761.569010719533	3
0	1621	2762.629289559466	4
0	1624	2766.833210666191	3
0	1626	2772.260266706316	4
0	1629	2773.343649773351	3
0	1631	2778.396199250992	2
0	1633	2780.693573597666	1
0	1635	2780.910654702266	2
0	1638	2781.695762127214	3
0	1641	2783.700300027575	4
0	1644	2785.629654110527	5
0	1647	2797.166819333488	4
0	1649	2801.207230533807	5
0	1652	2804.406043776329	6
0	1655	2808.247515222906	5
0	1657	2815.109695442461	6
0	1660	2827.464203596766	7
0	1663	2830.882428507279	8
0	1665	2832.087450864665	9
0	1667	2841.101414214896	10
0	1669	2848.875939133996	9
0	1672	2850.501077350892	10
0	1674	2853.470615605032	11
0	1676	2853.558554671125	12
0	1678	2854.635180397716	11
0	1681	2856.485347729697	12
0	1683	2869.246752167775	13
0	1685	2870.086061681078	14
0	1687	2873.168323609476	13
0	1690	2879.38562455961	14
0	1692	2887.227991492902	15
0	1694	2888.699530799796	14
0	1697	2889.70979942209	13
0	1700	2890.138509897617	14
0	1702	2894.108960991484	13
0	1705	2898.525842892833	14
0	1707	2900.380049761267	13
0	1710	2902.679952512292	12
0	1713	2909.846391785877	11
0	1716	2909.867720668336	10
0	1719	2911.527860986648	11
0	1721	2915.287991562891	10
0	1724	2915.544489858057	11
0	1726	2916.154178374711	12
0	1728	2922.503625966258	11
0	1731	2925.026045608191	12
0	1733	2928.409652774103	11
0	1736	2930.549289116564	12
0	1738	2932.413008513818	11
0	1741	2935.645162671905	12
0	1743	2935.695584681248	13
0	1745	2936.130373703918	14
0	1747	2939.065537131665	13
0	1750	2939.539589883812	14
0	1752	2939.765054566823	15
0	1754	2940.301481819465	14
0	1757	2942.756546203922	13
0	1760	2943.360046910023	14
0	1762	2943.664178607647	13
0	1765	2945.216763162755	14
0	1767	2945.543120498121	15
0	1769	2945.763467041797	14
0	1772	2946.211050430653	15
0	1774	2952.039666331439	14
0	1777	2969.321811329659	13
0	1780	2971.502110569312	12
0	1783	2977.209366486101	11
0	1786	2977.356288056197	12
0	1788	2977.694019370594	13
0	1790	3002.810794401565	12
0	1793	3003.936087830888	11
0	1796	3010.834245240682	10
0	1799	3023.121739360102	11
0	1801	3023.954893374076	12
0	1803	3026.164535940115	13
0	1805	3034.405534616897	14
0	1807	3034.898102662106	13
0	1810	3041.777710456353	12
0	1813	3043.420357858734	11
0	1816	3044.817475530017	12
0	1818	3045.674017225972	13
0	1820	3051.239136105762	12
0	1823	3051.921280925811	11
0	1826	3057.383896495403	12
0	1828	3057.8919976067	13
0	1830	3070.562603493478	14
0	1832	3072.059793305273	13
0	1835	3073.47566151774	14
0	1837	3078.296548080514	13
0	1840	3079.0879033658	12
0	1843	3081.678066868807	13
0	1845	3085.534134950082	12
0	1848	3089.440226647458	11
0	1851	3094.349941967256	12
0	1853	3094.683068341836	13
0	1855	3102.946095423398	12
0	1858	3104.47869484145	13
0	1860	3108.422656968155	12
0	1863	3110.81253441171	13
0	1865	3111.819147143763	14
0	1867	3123.561580638035	13
0	1870	3128.673379877311	12
0	1873	3133.450599459598	11
0	1876	3142.277448236883	10
0	1879	3147.449908729727	11
0	1881	3149.367574191245	12
0	1883	3152.551393755167	13
0	1885	3155.535544796783	12
0	1888	3158.350605001395	13
0	1890	3159.233741747968	12
0	1893	3161.129581259697	13
0	1895	3162.376895254882	14
0	1897	3164.219079421643	15
0	1899	3164.409352020587	14
0	1902	3178.806326210165	13
0	1905	3179.060177239189	12
0	1908	3184.39542258654	13
0	1910	3188.75064087455	12
0	1913	3195.840653399147	13
0	1915	3198.628548994271	14
0	1917	3201.032796202079	15
0	1919	3205.427761898724	16
0	1921	3209.225353680379	15
0	1924	3214.863440201942	14
0	1927	3217.256212908741	15
0	1929	3220.489751846928	14
0	1932	3225.814161572709	13
0	1935	3229.922269599394	14
0	1937	3233.628965404503	13
0	1940	3235.521013933461	12
0	1943	3235.787626192711	13
0	1945	3238.61212444815	12
0	1948	3239.662863769558	11
0	1951	3245.237880874284	10
0	1954	3246.779717271038	9
0	1957	3247.357820666421	10
0	1959	3248.626235322399	9
0	1962	3250.000178840202	10
0	1964	3250.084277912577	9
0	1967	3256.598261309063	10
0	1969	3260.303511201668	11
0	1971	3262.703820900805	10
0	1974	3273.534148852211	11
0	1976	3274.111926933321	10
0	1979	3282.513146416424	9
0	1982	3284.50431154026	8
0	1985	3292.339111160117	7
0	1988	3297.929152637919	8
0	1990	3299.536877548593	9
0	1992	3302.68846698549	10
0	1994	3304.928606282646	9
0	1997	3307.36983024495	10
0	1999	3308.155569451191	11
0	2001	3309.199331873104	12
0	2003	3312.075154701942	11
0	2006	3322.383156549671	10
0	2009	3324.144865040769	11
0	2011	3324.565054163759	10
0	2014	3325.890521583572	9
0	2017	3338.106439258854	10
0	2019	3340.170549958918	9
0	2022	3344.354921386191	8
0	2025	3346.669997008589	9
0	2027	3346.740495724156	8
0	2030	3346.996520900418	9
0	2032	3355.533959168616	8
0	2035	3363.366235791994	7
0	2038	3365.213026870686	6
0	2040	3366.276558723362	5
0	2042	3368.404243523551	6
0	2045	3368.418196381657	7
0	2048	3368.880036361533	6
0	2050	3371.877199162622	5
0	2052	3376.207657962137	6
0	2055	3379.617294900358	5
0	2057	3383.339489743968	4
0	2059	3383.911707895748	5
0	2062	3386.164326610637	6
0	2065	3388.967083259808	5
0	2067	3395.275251452662	6
0	2070	3398.302405949577	7
0	2073	3400.5718470923	6
0	2075	3402.40933392201	7
0	2078	3407.307668463988	8
0	2080	3408.686892575232	9
0	2082	3411.358909961693	10
0	2084	3414.646395468835	9
0	2087	3415.864799244403	8
0	2090	3418.297502995619	7
0	2093	3426.052912221184	6
0	2095	3427.32566490083	7
0	2098	3431.609886548457	8
0	2100	3440.904881818448	7
0	2103	3441.856679280891	6
0	2105	3444.923490791146	5
0	2107	3455.150766302615	6
0	2110	3462.244053232437	7
0	2113	3466.473581859718	6
0	2115	3469.149885224544	5
0	2117	3469.938997136631	6
0	2120	3471.571146913418	7
0	2123	3471.826410995821	6
0	2125	3472.030896590066	5
0	2127	3486.415937894591	6
0	2130	3490.172724785455	5
0	2132	3492.072449409091	6
0	2135	3498.958776449863	7
0	2138	3501.653632140725	6
0	2140	3502.455478204295	7
0	2143	3503.22589710011	6
0	2145	3505.408580774026	7
0	2148	3510.221478990652	6
0	2150	3510.297917040377	7
0	2153	3513.740961859744	8
0	2155	3516.485898947509	9
0	2157	3518.320331180972	8
0	2160	3518.800184408218	7
0	2163	3522.075227336213	8
0	2165	3523.657946829575	9
0	2167	3524.328391534204	10
0	2169	3528.093639095459	9
0	2172	3534.881960493822	10
0	2174	3536.207706983163	9
0	2177	3536.999014876661	8
0	2180	3540.277074616121	7
0	2183	3540.30289037467	8
0	2185	3542.561196655547	9
0	2187	3545.642000348996	8
0	2190	3550.745767772634	9
0	2192	3552.213916979115	8
0	2195	3557.465872597807	9
0	2197	3561.25417624248	10
0	2199	3564.091895592013	11
0	2201	3564.824274757267	10
0	2204	3565.756791853606	9
0	2207	3578.4329310912	10
0	2209	3580.193364179649	11
0	2211	3581.619433220453	10
0	2214	3582.064280780091	9
0	2217	3598.604682632573	10
0	2219	3602.746517445543	9
0	2222	3604.002581341818	10
0	2224	3606.402274785939	11
0	2226	3611.243828391461	12
0	2228	3611.496686880994	13
0	2230	3612.030155901377	12
0	2233	3612.603966492722	13
0	2235	3613.274125444224	12
0	2238	3616.650586760163	11
0	2241	3617.732134002224	10
0	2244	3618.164532933213	9
0	2247	3618.665587286805	10
0	2249	3621.144470083534	9
0	2252	3621.957888413107	8
0	2255	3622.565988328224	9
0	2257	3623.831054140214	10
0	2259	3624.010896821301	11
0	2261	3624.644249304097	12
0	2263	3627.617022463512	13
0	2265	3629.561560504619	12
0	2268	3630.506212006741	13
0	2270	3631.589347970657	12
0	2273	3633.829072109986	11
0	2276	3638.546975544119	10
0	2279	3639.178419126784	11
0	2281	3641.92499059689	10
0	2284	3645.822581616319	9
0	2287	3648.721662489782	10
0	2289	3650.802479825121	9
0	2292	3652.115040450256	10
0	2294	3652.836705910265	9
0	2297	3653.02794988107	8
0	2300	3656.789639622807	9
0	2302	3657.112858068223	8
0	2305	3658.323464424745	7
0	2308	3658.538259055524	8
0	2310	3659.487157107408	9
0	2312	3664.035102722277	10
0	2314	3664.67409377944	11
0	2316	3668.026927175294	10
0	2319	3670.577688997465	9
0	2322	3683.595433768305	10
0	2324	3687.149597881023	9
0	2327	3691.27046119946	8
0	2330	3695.630396722516	9
0	2332	3711.336220813864	10
0	2334	3712.793000062301	11
0	2336	3718.819267053995	10
0	2339	3718.965651387919	11
0	2341	3720.132684290204	10
0	2344	3723.79306612641	11
0	2346	3726.806180245177	12
0	2348	3727.637857531951	13
0	2350	3729.595170777371	12
0	2353	3730.060521497285	13
0	2355	3730.29576935613	12
0	2358	3731.578220672727	11
0	2361	3731.732132433881	12
0	2363	3732.10194686841	11
0	2366	3736.306370474831	12
0	2368	3740.623997637916	13
0	2370	3741.598959685409	12
0	2373	3742.615888969546	13
0	2375	3748.008603986823	12
0	2378	3755.153617150639	11
0	2381	3759.644091653895	12
0	2383	3760.422830178712	13
0	2385	3760.694272136807	12
0	2388	3771.458836732886	13
0	2390	3776.396729744744	14
0	2392	3776.791369678682	13
0	2395	3781.786676302358	12
0	2398	3784.212470250375	11
0	2401	3789.462267565907	10
0	2404	3795.36024988562	9
0	2407	3797.032899478312	10
0	2409	3797.11633411	11
0	2411	3798.016568579027	10
0	2414	3800.104880633004	9
0	2417	3800.294736649062	10
0	2419	3806.678230440694	9
0	2422	3807.142335919976	10
0	2424	3807.407735898891	11
0	2426	3813.714940546586	12
0	2428	3816.758425236553	11
0	2431	3817.48563475457	10
0	2434	3818.249685564131	9
0	2437	3823.518185557662	8
0	2440	3831.125184941205	9
0	2442	3832.936830768821	8
0	2445	3838.541789315667	7
0	2448	3839.64908635299	8
0	2450	3840.608147284368	7
0	2453	3848.162778784116	6
0	2455	3851.449597159472	5
0	2457	3851.555959476606	4
0	2459	3857.969561486853	5
0	2462	3861.041097784852	4
0	2464	3862.241987063979	5
0	2467	3863.101861523053	4
0	2469	3868.789723640612	5
0	2472	3871.000518378741	6
0	2475	3878.745233601628	7
0	2478	3878.83479379983	6
0	2480	3879.363845945624	5
0	2482	3881.240759821876	4
0	2484	3884.37871420404	5
0	2487	3886.30572175486	6
0	2490	3886.61600980231	5
0	2492	3888.216680521413	6
0	2495	3907.830715364993	5
0	2497	3920.245089761658	4
0	2499	3934.734959172386	5
0	2502	3938.816003789933	4
0	2504	3938.861143811789	5
0	2507	3940.971692878301	6
0	2510	3952.404091495072	5
0	2512	3952.962390233889	6
0	2515	3954.718605950677	7
0	2518	3960.53226123115	6
0	2520	3962.374133425613	7
0	2523	3965.955626213872	8
0	2525	3973.438610731709	9
0	2527	3978.156430130904	8
0	2530	3978.952802674198	9
0	2532	3979.222771839022	8
0	2535	3981.75418715167	7
0	2538	3982.003769959808	8
0	2540	3982.434630760807	9
0	2542	3985.620600392279	8
0	2545	3986.965089006758	9
0	2547	3991.344372385068	10
0	2549	3991.808527483866	11
0	2551	3992.123768134548	12
0	2553	3997.994447566509	11
0	2556	3999.970718302957	12
0	2558	4004.293837850311	11
0	2561	4005.390022810541	12
0	2563	4006.327735482828	11
0	2566	4009.12318161925	10
0	2569	4013.647081195311	9
0	2572	4013.849702835096	10
0	2574	4025.075476989384	11
0	2576	4025.963552802425	10
0	2579	4032.149313362401	11
0	2581	4032.351357326516	12
0	2583	4033.677981216821	11
0	2586	4035.230306199872	10
0	2589	4035.269422188648	11
0	2591	4036.627085662986	10
0	2594	4044.768622053953	9
0	2597	4050.590093391414	10
0	2599	4054.550275811964	11
0	2601	4057.616998812254	12
0	2603	4069.678318247712	13
0	2605	4071.496684706397	14
0	2607	4078.59470133471	15
0	2609	4078.693744067297	14
0	2612	4084.47248316954	13
0	2615	4084.987078907498	14
0	2617	4086.521265039466	15
0	2619	4086.5679054846	14
0	2622	4086.897350306068	13
0	2625	4086.963684830699	14
0	2627	4090.428062913519	15
0	2629	4095.33293126613	14
0	2632	4097.290996456522	15
0	2634	4098.858106507661	16
0	2636	4110.795405873462	17
0	2638	4113.258200998517	18
0	2640	4115.714479066544	17
0	2643	4116.32220760191	16
0	2646	4120.048430916548	17
0	2648	4123.910791884912	16
0	2651	4124.57689224307	15
0	2654	4124.695222155577	14
0	2657	4137.363586781375	15
0	2659	4139.638826295639	14
0	2662	4141.310280085199	13
0	2665	4145.851082999564	14
0	2667	4146.684310087573	15
0	2669	4148.946971264352	14
0	2672	4151.825296702008	13
0	2675	4161.715276343205	14
0	2677	4162.271759938715	15
0	2679	4167.459747801621	16
0	2681	4168.498294929894	15
0	2684	4170.156444899085	16
0	2686	4171.657556990435	17
0	2688	4171.708228974729	18
0	2690	4177.563471434021	19
0	2692	4178.073383935508	20
0	2694	4181.875508739019	19
0	2697	4188.769647752067	18
0	2700	4199.169420669609	17
0	2703	4199.367328110336	18
0	2705	4200.11214982387	19
0	2707	4203.32532163172	20
0	2709	4205.222869606788	21
0	2711	4206.539665023196	20
0	2714	4208.648899997188	19
0	2717	4212.875810049072	18
0	2720	4213.915375367975	17
0	2723	4220.818490562725	16
0	2726	4225.981497534789	15
0	2729	4227.120565371276	14
0	2732	4227.181004036652	13
0	2735	4230.810884552094	14
0	2737	4234.690814866527	15
0	2739	4240.607094014654	14
0	2742	4242.499843175531	15
0	2744	4249.755197671706	14
0	2747	4249.94577144569	13
0	2750	4254.402669197884	14
0	2752	4254.467853093676	13
0	2755	4258.923405000857	14
0	2757	4260.729600513283	13
0	2760	4263.319305167173	14
0	2762	4265.781620552936	13
0	2765	4268.465117272103	14
0	2767	4274.78248573461	13
0	2770	4275.528293094076	12
0	2773	4284.926251212821	13
0	2775	4289.520105752143	14
0	2777	4295.048687064949	13
0	2780	4296.321610838117	14
0	2782	4305.297475101048	13
0	2785	4305.590582862243	12
0	2788	4309.064573617557	13
0	2790	4311.499849156478	14
0	2792	4314.559742632413	15
0	2794	4321.605551887124	16
0	2796	4322.161937327343	17
0	2798	4335.366147962515	16
0	2801	4340.064936538174	15
0	2804	4352.927266391223	14
0	2807	4358.881335174011	15
0	2809	4359.655212254668	16
0	2811	4370.926767797478	17
0	2813	4371.974327709495	16
0	2816	4372.899056393343	15
0	2819	4375.310394179906	14
0	2822	4375.920735917172	15
0	2824	4381.16596378365	14
0	2827	4381.727194214336	15
0	2829	4383.350042941312	16
0	2831	4389.857381573817	15
0	2834	4394.395693850838	16
0	2836	4396.224571383456	15
0	2839	4396.809594834097	14
0	2842	4404.349237170475	13
0	2845	4404.430460240486	12
0	2848	4423.121758887086	11
0	2851	4423.46335578697	10
0	2854	4423.771713850247	9
0	2857	4430.832225583363	10
0	2859	4435.440651256428	9
0	2862	4435.928389445203	10
0	2864	4435.997598628333	11
0	2866	4435.998824314803	10
0	2869	4437.509560616794	9
0	2872	4440.362333927036	8
0	2875	4446.491616842789	9
0	2877	4447.022272663254	8
0	2880	4452.61440575812	9
0	2882	4455.693421824566	10
0	2884	4458.538893802978	9
0	2887	4466.53311039409	8
0	2890	4467.291292479959	7
0	2893	4468.713107763213	8
0	2895	4473.907068541292	7
0	2898	4475.754760455683	8
0	2900	4478.618682848615	7
0	2903	4482.843300715429	8
0	2905	4486.724166177149	7
0	2908	4490.155950463622	6
0	2910	4494.223028172394	5
0	2912	4499.640563599048	4
0	2914	4499.86638895187	3
0	2916	4504.251403662945	2
0	2918	4508.46571545943	1
0	2920	4510.483187802712	2
0	2923	4511.415474944725	3
0	2926	4513.432025500344	4
0	2929	4513.472145754066	5
0	2932	4517.790718081757	6
0	2935	4529.068547853676	5
0	2937	4532.640940987894	4
0	2939	4533.284689412869	5
0	2942	4537.610658957988	6
0	2945	4545.032575071196	7
0	2948	4548.389065778321	6
0	2950	4550.736493017744	7
0	2953	4550.759269136451	6
0	2955	4551.638805216884	5
0	2957	4551.857742489121	4
0	2959	4555.837405174093	5
0	2962	4566.798165666785	4
0	2964	4567.047673713716	5
0	2967	4571.459810846454	6
0	2970	4584.422112317681	5
0	2972	4592.094648441648	6
0	2975	4593.168425806906	7
0	2978	4594.116256768844	8
0	2980	4605.999114635166	7
0	2983	4611.376005127924	8
0	2985	4615.766921271376	7
0	2988	4616.345045049557	6
0	2990	4616.671362906835	5
0	2992	4619.129349468111	4
0	2994	4622.282702389412	5
0	2997	4628.292680617224	6
0	3000	4629.056471870267	7
0	3003	4644.496309685556	6
0	3005	4647.738569729206	7
0	3008	4653.148497648135	8
0	3010	4661.783202181978	9
0	3012	4663.740447051063	8
0	3015	4664.365844809531	7
0	3018	4666.493069912076	6
0	3020	4669.556890533495	5
0	3022	4673.039396293465	4
0	3024	4678.493030386904	5
0	3027	4679.130254096768	4
0	3029	4680.017907995648	5
0	3032	4680.042146065293	4
0	3034	4681.710598356829	5
0	3037	4688.552784776136	4
0	3039	4693.597423969226	5
0	3042	4696.233873353564	6
0	3045	4698.071410330662	7
0	3048	4698.081590759556	8
0	3050	4698.480275247315	9
0	3052	4699.421500963514	8
0	3055	4702.005016792825	9
0	3057	4712.54611494994	8
0	3060	4719.656106605662	7
0	3063	4720.741670972966	6
0	3065	4722.102670246171	7
0	3068	4722.441430651852	6
0	3070	4726.536601058907	5
0	3072	4731.770051278094	4
0	3074	4733.709583321807	5
0	3077	4737.939124367127	4
0	3079	4743.883054434044	3
0	3081	4747.663718400068	2
0	3083	4757.710588460641	1
0	3085	4762.611316941298	2
0	3088	4772.135249552599	3
0	3091	4774.978809222063	2
0	3093	4791.213288899029	3
0	3096	4796.329569788248	2
0	3098	4797.663618451459	3
0	3101	4797.852685319203	2
0	3103	4798.057302584936	1
0	3105	4800.771427345196	2
0	3108	4818.381951781946	3
0	3111	4819.790800272722	2
0	3113	4821.9943092142	3
0	3116	4826.216372594431	2
0	3118	4833.170607609053	1
0	3120	4863.54538860889	2
0	3123	4867.156976797543	1
0	3125	4869.313473292407	2
0	3128	4880.678826348323	3
0	3131	4880.848197580554	4
0	3134	4882.060867764799	3
0	3136	4883.273680939139	2
0	3138	4894.372305580634	3
0	3141	4903.730858185892	2
0	3143	4907.831201005967	3
0	3146	4911.833710714092	2
0	3148	4914.020087873126	1
0	3150	4915.070922952333	2
0	3153	4916.398833337541	3
0	3156	4916.785186584026	4
0	3159	4917.402223084915	5
0	3162	4921.869214139533	4
0	3164	4940.187428736482	5
0	3167	4944.10327381093	6
0	3170	4945.382876195352	5
0	3172	4949.391733528088	4
0	3174	4955.197258913085	3
0	3176	4960.171758816874	2
0	3178	4960.605258353446	3
0	3181	4964.573945042603	2
0	3183	4965.569078780248	1
0	3185	4967.288044733712	2
0	3188	4968.932102056865	3
0	3191	4971.597271153121	4
0	3194	4973.662418336153	5
0	3197	4979.889234901201	6
0	3200	4980.133124591256	5
0	3202	4982.360356635727	6
0	3205	4983.792890258057	7
0	3208	4984.01860630364	8
0	3210	4986.555895721577	7
0	3213	4996.99320465745	6
0	3215	4998.569742989022	7
0	3218	5003.457782932856	6
0	3220	5007.390494920954	5
0	3222	5008.024858125447	6
0	3225	5008.328997829103	7
0	3228	5008.779891965649	6
0	3230	5010.118102409127	7
0	3233	5014.647796377769	8
0	3235	5014.939841486427	9
0	3237	5016.137847918292	10
0	3239	5020.220244898024	9
0	3242	5021.428053410555	8
0	3245	5027.250574392877	7
0	3248	5033.869048193027	8
0	3250	5036.190181476691	9
0	3252	5045.894413773313	8
0	3255	5049.328419639104	9
0	3257	5051.389575063261	8
0	3260	5061.729790625837	9
0	3262	5062.950636660483	8
0	3265	5067.95639199424	9
0	3267	5076.257737684791	8
0	3270	5086.242084972805	7
0	3273	5090.526799803162	8
0	3275	5090.70238101263	9
0	3277	5092.002252882982	8
0	3280	5100.894230226405	7
0	3283	5113.049574590216	8
0	3285	5113.831689542147	7
0	3288	5114.470274219875	8
0	3290	5117.801654779037	9
0	3292	5119.463337535893	8
0	3295	5120.585031489279	7
0	3298	5122.290344739934	6
0	3300	5129.240296604798	7
0	3303	5130.518532731334	6
0	3305	5130.954979856905	5
0	3307	5133.542334877672	4
0	3309	5139.419081456396	3
0	3311	5153.394706323454	2
0	3313	5168.249101263693	3
0	3316	5175.154555336664	2
0	3318	5176.755007464888	3
0	3321	5177.661341931145	2
0	3323	5178.12485038103	3
0	3326	5184.676379777314	2
0	3328	5201.665378723959	3
0	3331	5205.948020552277	2
0	3333	5208.116391472729	3
0	3336	5223.721817260627	2
0	3338	5227.265800072897	3
0	3341	5234.971774576683	2
0	3343	5236.009027346312	1
0	3345	5250.253817684136	0
0	3347	5255.723087752607	1
0	3350	5259.952831251631	2
0	3353	5262.471805619193	3
0	3356	5273.081552375419	4
0	3359	5274.39491638589	5
0	3362	5275.544199179597	6
0	3365	5284.143191630073	7
0	3368	5285.932187096676	6
0	3370	5298.976208578337	5
0	3372	5305.239978912183	4
0	3374	5307.736466133374	5
0	3377	5309.809193243085	6
0	3380	5311.625222400535	5
0	3382	5312.187251485813	4
0	3384	5316.27921589874	3
0	3386	5330.717915586833	4
0	3389	5336.001836965779	3
0	3391	5338.954647209292	2
0	3393	5340.851430717126	1
0	3395	5367.638550228441	0
0	3397	5387.951568484454	1
0	3400	5391.156480613769	2
0	3403	5392.219080461493	3
0	3406	5409.182406505694	2
0	3408	5412.856435924112	3
0	3411	5417.136504682241	4
0	3414	5419.8850086406	5
0	3417	5420.400180744381	6
0	3420	5422.451057558941	5
0	3422	5426.058985346663	6
0	3425	5433.023128841206	5
0	3427	5433.558787837724	4
0	3429	5435.238609730173	3
0	3431	5443.037904733203	4
0	3434	5443.419484330509	3
0	3436	5443.7408160418	4
0	3439	5446.525004221549	5
0	3442	5451.873587093456	4
0	3444	5457.992308952455	3
0	3446	5463.241217753928	2
0	3448	5470.293363375088	3
0	3451	5471.682678144768	2
0	3453	5473.414620622102	3
0	3456	5478.847491750453	4
0	3459	5480.997553057024	3
0	3461	5481.283180261621	4
0	3464	5481.863373949274	3
0	3466	5485.560902335549	4
0	3469	5494.332998355593	5
0	3472	5496.881053047964	4
0	3474	5503.853030672272	3
0	3476	5505.342838574533	2
0	3478	5529.81572126122	3
0	3481	5531.112046083554	2
0	3483	5534.814254067438	3
0	3486	5541.07747922887	2
0	3488	5542.126601512568	3
0	3491	5544.481481252265	4
0	3494	5548.168537789941	5
0	3497	5550.378162344748	6
0	3500	5552.289621057325	5
0	3502	5552.897126001659	6
0	3505	5557.291723764387	7
0	3508	5569.301082755462	8
0	3510	5572.623274769506	9
0	3512	5573.934842266098	8
0	3515	5576.969065802042	7
0	3518	5579.980029655114	8
0	3520	5580.938435139787	7
0	3523	5582.892634413255	8
0	3525	5583.594770981631	7
0	3528	5596.530317206249	8
0	3530	5598.4130825779	7
0	3533	5598.96757326273	6
0	3535	5599.859011426457	7
0	3538	5600.563816495347	8
0	3540	5600.611046152986	7
0	3543	5600.804489109491	6
0	3545	5604.149273332521	5
0	3547	5606.592713815655	6
0	3550	5606.922775196928	7
0	3553	5609.302941071264	6
0	3555	5617.149122295582	7
0	3558	5619.589689215534	6
0	3560	5620.081674088647	5
0	3562	5621.044829682369	4
0	3564	5622.897254965041	3
0	3566	5636.645727751214	4
0	3569	5658.754858799148	3
0	3571	5659.476437188025	4
0	3574	5664.905261041615	5
0	3577	5675.587530966017	4
0	3579	5680.045309458264	5
0	3582	5681.587346288338	6
0	3585	5684.062901853935	5
0	3587	5687.907921569887	4
0	3589	5703.482070379913	5
0	3592	5707.655006333104	6
0	3595	5713.561261548194	7
0	3598	5717.674820612429	8
0	3600	5717.778020034906	9
0	3602	5720.590059941379	10
0	3604	5722.746206812109	11
0	3606	5723.164016691179	10
0	3609	5724.368770396067	9
0	3612	5729.848203219465	10
0	3614	5733.474772485625	9
0	3617	5734.645169049926	10
0	3619	5734.844345016765	9
0	3622	5736.617927416812	10
0	3624	5738.828358873323	11
0	3626	5740.344254154108	10
0	3629	5740.747088199372	9
0	3632	5742.909052238633	10
0	3634	5747.547898249707	9
0	3637	5752.666530788915	8
0	3640	5753.201550398839	9
0	3642	5755.651706982595	8
0	3645	5758.114684942172	7
0	3648	5761.985084850083	8
0	3650	5764.215628521363	7
0	3653	5764.698021883228	6
0	3655	5765.823446049358	5
0	3657	5781.853110946261	6
0	3660	5794.870664750838	7
0	3663	5797.017430278498	8
0	3665	5799.761593527685	7
0	3668	5799.953784084011	8
0	3670	5801.277091764336	7
0	3673	5801.471498623422	8
0	3675	5801.948843664692	7
0	3678	5803.197497372812	6
0	3680	5806.054056982836	5
0	3682	5807.087048718975	4
0	3684	5808.044014050956	3
0	3686	5808.27894614808	2
0	3688	5816.191733235684	1
0	3690	5817.451897853719	2
0	3693	5821.769570499744	3
0	3696	5834.982153476266	4
0	3699	5835.143810667844	5
0	3702	5840.266907911967	4
0	3704	5853.317922715346	3
0	3706	5854.625032010992	4
0	3709	5856.897192377252	5
0	3712	5859.300228481947	4
0	3714	5861.184134302276	5
0	3717	5873.747128121558	6
0	3720	5874.47955061796	5
0	3722	5881.940181414497	6
0	3725	5885.675526835457	5
0	3727	5889.015583885286	4
0	3729	5891.220260208779	3
0	3731	5894.741559131783	2
0	3733	5894.942957150294	3
0	3736	5906.225865313803	4
0	3739	5910.369608383395	5
0	3742	5913.087464852711	4
0	3744	5913.392738668421	5
0	3747	5914.215536125909	6
0	3750	5916.215858211105	5
0	3752	5916.969768136541	6
0	3755	5918.257894433953	7
0	3758	5921.508601677134	8
0	3760	5923.167562299041	9
0	3762	5923.886675825305	8
0	3765	5926.681489537547	9
0	3767	5927.476408513509	8
0	3770	5929.12420368943	7
0	3773	5931.011192298889	6
0	3775	5932.429860381793	5
0	3777	5935.553642036666	4
0	3779	5938.521860310703	3
0	3781	5959.308917665365	2
0	3783	5967.798700597913	3
0	3786	5971.795183401736	2
0	3788	5975.827170215734	3
0	3791	5976.930187393365	4
0	3794	5979.566913101874	3
0	3796	5980.54767470401	4
0	3799	5993.0905724064	3
0	3801	6005.629756399681	4
0	3804	6012.054445201186	3
0	3806	6016.414410676262	2
0	3808	6020.373642714516	3
0	3811	6023.497869275312	2
0	3813	6023.532094195211	3
0	3816	6038.178833239797	4
0	3819	6044.902658495876	5
0	3822	6045.005449586537	4
0	3824	6055.13932854487	3
0	3826	6068.509819483671	4
0	3829	6069.448698298227	5
0	3832	6069.682881789982	6
0	3835	6078.439921951348	7
0	3838	6078.569733807778	8
0	3840	6084.092113135535	7
0	3843	6089.00762993295	6
0	3845	6094.424980279417	5
0	3847	6097.178570286556	6
0	3850	6100.041215342326	5
0	3852	6101.255402214222	4
0	3854	6106.651074241559	5
0	3857	6107.047665111554	6
0	3860	6114.601575003195	7
0	3863	6127.594244631748	8
0	3865	6128.239058937203	7
0	3868	6128.796021907866	6
0	3870	6129.407883256071	7
0	3873	6130.964398939275	6
0	3875	6137.770422516119	7
0	3878	6139.77783855402	6
0	3880	6142.738702630386	7
0	3883	6145.112862914688	8
0	3885	6153.352036836003	9
0	3887	6155.243174652207	8
0	3890	6156.92929151494	9
0	3892	6166.303737070621	10
0	3894	6168.089837733585	9
0	3897	6184.496016492378	8
0	3900	6185.349656765093	7
0	3903	6185.388584109248	6
0	3905	6187.600501809794	5
0	3907	6188.24912347614	4
0	3909	6192.567878658374	3
0	3911	6195.04852835236	2
0	3913	6195.552288850512	3
0	3916	6197.906360024529	4
0	3919	6198.230763694414	5
0	3922	6204.220107834004	6
0	3925	6205.117052117394	5
0	3927	6210.848272948574	6
0	3930	6212.873937373005	5
0	3932	6213.287406619111	6
0	3935	6215.630696042077	5
0	3937	6217.633475719571	6
0	3940	6220.270975817448	5
0	3942	6220.707767194168	4
0	3944	6222.239441071004	3
0	3946	6229.176088682128	2
0	3948	6231.495669226168	1
0	3950	6244.129796342866	2
0	3953	6249.598688231453	1
0	3955	6250.424566007008	0
0	3957	6253.703685863453	1
0	3960	6257.423592838532	2
0	3963	6263.687788540268	3
0	3966	6269.07925581628	2
0	3968	6304.281434387091	3
0	3971	6316.749518448904	4
0	3974	6317.309383815876	5
0	3977	6326.742501726776	6
0	3980	6329.101143627759	5
0	3982	6333.024210716364	6
0	3985	6334.830816952832	5
0	3987	6337.071454334381	4
0	3989	6347.263854442851	5
0	3992	6350.00076133871	6
0	3995	6354.286145473267	7
0	3998	6356.741742887983	8
0	4000	6356.904849357235	7
0	4003	6363.04306178828	6
0	4005	6363.938891550003	5
0	4007	6367.042019695736	4
0	4009	6367.935633195963	5
0	4012	6371.259885488547	4
0	4014	6373.848760204955	5
0	4017	6374.751088954396	6
0	4020	6377.857765171883	7
0	4023	6384.235894027069	8
0	4025	6385.668402536428	9
0	4027	6390.321364596045	10
0	4029	6390.474383167531	11
0	4031	6393.14914219259	12
0	4033	6396.471100089765	13
0	4035	6412.215314132988	12
0	4038	6414.516336008889	11
0	4041	6415.710399292036	10
0	4044	6425.821461011983	9
0	4047	6427.574477119169	8
0	4050	6428.385674917593	7
0	4053	6432.889261490711	6
0	4055	6439.69684707568	5
0	4057	6445.207816027072	4
0	4059	6446.185220111125	3
0	4061	6449.397620364234	4
0	4064	6451.812700646771	5
0	4067	6457.900890333964	4
0	4069	6458.3906838738	5
0	4072	6467.301130995662	6
0	4075	6470.36035510691	7
0	4078	6470.495165017824	6
0	4080	6471.619269131083	7
0	4083	6472.171853911664	6
0	4085	6476.51576281752	7
0	4088	6477.009155564543	6
0	4090	6477.273330428292	7
0	4093	6479.122736670313	8
0	4095	6486.481352902192	7
0	4098	6497.952556809893	8
0	4100	6500.093993922189	9
0	4102	6501.812005255897	8
0	4105	6508.238447483966	9
0	4107	6510.167746104154	8
0	4110	6518.836262551591	9
0	4112	6521.875668491562	8
0	4115	6522.22206170088	7
0	4118	6523.117544470256	6
0	4120	6526.425245851311	7
0	4123	6528.133537228929	8
0	4125	6533.760755538093	7
0	4128	6534.48586411501	8
0	4130	6538.100130582314	9
0	4132	6546.958510579162	10
0	4134	6548.854846717089	9
0	4137	6555.648673741299	8
0	4140	6565.443164667508	7
0	4143	6565.757561605067	8
0	4145	6567.066629299421	7
0	4148	6570.627906386237	6
0	4150	6571.597662766693	5
0	4152	6577.698299512889	6
0	4155	6578.362182380149	7
0	4158	6578.831243252705	6
0	4160	6579.352309089813	7
0	4163	6590.935003392287	8
0	4165	6592.756399969509	7
0	4168	6592.935591174005	6
0	4170	6596.3773773712	7
0	4173	6599.848833926678	8
0	4175	6611.934858645099	7
0	4178	6612.200383031592	6
0	4180	6617.244831820491	5
0	4182	6622.905205797785	6
0	4185	6626.030273568513	7
0	4188	6626.890244850327	6
0	4190	6632.700964004604	7
0	4193	6634.638044000095	8
0	4195	6635.505821525167	7
0	4198	6638.934990769026	8
0	4200	6639.025049366936	9
0	4202	6641.089630333773	10
0	4204	6646.58502380996	11
0	4206	6647.297090037225	10
0	4209	6653.870724095091	11
0	4211	6654.149857096165	12
0	4213	6655.655879058045	13
0	4215	6660.836259166827	14
0	4217	6667.054958196515	13
0	4220	6671.464239571371	12
0	4223	6672.411306982661	11
0	4226	6680.266140605376	10
0	4229	6681.744847897273	11
0	4231	6685.551096333505	12
0	4233	6688.48568105043	13
0	4235	6688.678661515208	12
0	4238	6689.39149119384	11
0	4241	6696.050280142305	10
0	4244	6699.183342723483	9
0	4247	6708.978237391031	8
0	4250	6715.956905482361	7
0	4253	6718.53712210089	6
0	4255	6720.420782362401	7
0	4258	6723.04862776434	8
0	4260	6723.238789882323	9
0	4262	6723.678888111341	8
0	4265	6728.117678193241	7
0	4268	6728.337320151038	6
0	4270	6734.0218805403	5
0	4272	6734.109508111549	6
0	4275	6735.684980649436	5
0	4277	6744.607756068832	6
0	4280	6745.872573558165	5
0	4282	6747.477498878004	4
0	4284	6748.610685267581	5
0	4287	6751.528134613776	4
0	4289	6762.972768158809	5
0	4292	6764.523950964607	6
0	4295	6768.746072344971	7
0	4298	6779.038342528557	8
0	4300	6785.458795860729	7
0	4303	6791.401987312285	6
0	4305	6792.176913992454	7
0	4308	6794.591423873636	8
0	4310	6795.319980211209	9
0	4312	6797.511048680574	8
0	4315	6799.147548034158	7
0	4318	6801.477409457127	6
0	4320	6802.882949549931	5
0	4322	6806.349825831103	4
0	4324	6810.757464924731	3
0	4326	6811.124976690065	4
0	4329	6811.578935759657	3
0	4331	6812.901766315145	4
0	4334	6815.210072086611	3
0	4336	6822.488551112563	4
0	4339	6823.418841487344	3
0	4341	6851.739352886963	2
0	4343	6853.807875457862	1
0	4345	6853.941309023613	2
0	4348	6854.112722766999	3
0	4351	6857.496758691979	4
0	4354	6862.724396362846	3
0	4356	6864.177092772671	4
0	4359	6864.497303268484	5
0	4362	6878.372866216137	6
0	4365	6879.24858672808	5
0	4367	6890.017889679442	6
0	4370	6894.350082696076	7
0	4373	6895.370829326094	6
0	4375	6897.052306170798	5
0	4377	6900.155375287551	6
0	4380	6902.000453775833	5
0	4382	6902.226806451177	6
0	4385	6905.404255101836	5
0	4387	6909.690028068453	4
0	4389	6910.579889205315	5
0	4392	6915.183907303822	4
0	4394	6915.864954575874	5
0	4397	6916.174157544738	6
0	4400	6924.989264656086	7
0	4403	6926.003756764587	6
0	4405	6934.949423180603	7
0	4408	6941.317450510646	8
0	4410	6943.667629082634	9
0	4412	6947.860753682003	10
0	4414	6950.431179279628	11
0	4416	6951.340326871713	10
0	4419	6958.070284631829	9
0	4422	6963.304074290691	8
0	4425	6970.291677533676	7
0	4428	6972.714011153395	6
0	4430	6979.973478816524	5
0	4432	6987.318798962323	4
0	4434	6996.587399959614	5
0	4437	7003.503738911382	4
0	4439	7005.366013589444	5
0	4442	7005.697027644045	6
0	4445	7006.583807237214	7
0	4448	7007.442495115758	8
0	4450	7013.584037033983	7
0	4453	7018.985332389197	6
0	4455	7022.766450751662	5
0	4457	7034.810251379085	6
0	4460	7039.94348356956	7
0	4463	7044.597278914996	6
0	4465	7049.892583513986	7
0	4468	7051.781493351404	6
0	4470	7057.379615257387	5
0	4472	7063.956283517143	6
0	4475	7067.387830971069	5
0	4477	7072.686020552664	4
0	4479	7078.220561295951	5
0	4482	7081.678177485439	4
0	4484	7086.81439197162	5
0	4487	7102.08869860107	4
0	4489	7107.770768185577	3
0	4491	7112.787978919129	4
0	4494	7114.21416927627	3
0	4496	7115.685401394716	4
0	4499	7116.13325083355	3
0	4501	7116.95050598318	4
0	4504	7137.940108761193	3
0	4506	7140.383458776183	2
0	4508	7143.555614466707	3
0	4511	7144.030888421428	4
0	4514	7153.711626273965	5
0	4517	7158.230718357254	4
0	4519	7160.260729372826	5
0	4522	7162.105097987627	4
0	4524	7163.638611965684	3
0	4526	7164.869157064864	2
0	4528	7171.975499599653	1
0	4530	7174.300848257895	2
0	4533	7175.003770318977	1
0	4535	7176.052389612318	2
0	4538	7184.376306540926	3
0	4541	7189.135994739102	4
0	4544	7190.326272319715	5
0	4547	7195.1921449453	6
0	4550	7200.588777643612	7
0	4553	7215.981511960037	8
0	4555	7227.35876776051	9
0	4557	7228.947639248521	8
0	4560	7233.489643066257	9
0	4562	7237.878552892728	8
0	4565	7242.642024349455	7
0	4568	7244.639914878975	8
0	4570	7245.738274728666	7
0	4573	7246.36898397861	8
0	4575	7248.198489032063	7
0	4578	7251.134153154567	8
0	4580	7261.392740012841	7
0	4583	7261.98191334362	6
0	4585	7264.793787122724	5
0	4587	7267.583111211136	6
0	4590	7268.187398415892	5
0	4592	7269.758265963371	6
0	4595	7280.741002621728	5
0	4597	7280.795223149549	4
0	4599	7288.115775916012	3
0	4601	7291.005768964082	4
0	4604	7295.503598329553	3
0	4606	7296.29092208991	4
0	4609	7297.813742476998	5
0	4612	7298.236702964868	4
0	4614	7298.644058925038	3
0	4616	7300.362082304415	4
0	4619	7303.083024436344	5
0	4622	7305.345654551505	4
0	4624	7308.88545553358	5
0	4627	7310.503511107757	4
0	4629	7315.842509876331	3
0	4631	7320.163124780371	4
0	4634	7320.254860015428	3
0	4636	7335.465893659443	4
0	4639	7338.38126711893	3
0	4641	7343.02331912092	4
0	4644	7353.073423596879	5
0	4647	7353.376341567608	6
0	4650	7358.328443606842	7
0	4653	7366.085904514924	6
0	4655	7366.196631424093	5
0	4657	7369.301818545654	6
0	4660	7378.111035527385	7
0	4663	7385.317986727358	8
0	4665	7386.084433703923	9
0	4667	7387.607779681884	8
0	4670	7388.019321019698	9
0	4672	7388.136552049185	8
0	4675	7390.11012828419	9
0	4677	7395.64571921709	8
0	4680	7404.140968927086	7
0	4683	7407.605163385583	6
0	4685	7414.427191922613	7
0	4688	7414.49645693006	6
0	4690	7417.598184840181	5
0	4692	7419.617809712621	4
0	4694	7425.50908536073	3
0	4696	7439.500137541899	4
0	4699	7451.040923742696	3
0	4701	7451.319394998425	4
0	4704	7453.040099288887	5
0	4707	7459.727616453858	6
0	4710	7463.145934636793	7
0	4713	7465.612580470771	6
0	4715	7468.105942976413	5
0	4717	7468.465092538535	6
0	4720	7471.273879308228	7
0	4723	7473.350083699608	6
0	4725	7479.013046341095	7
0	4728	7485.841133400225	8
0	4730	7493.778837866744	7
0	4733	7495.710719657511	8
0	4735	7499.669686238193	9
0	4737	7502.105197165565	8
0	4740	7502.632971326825	9
0	4742	7503.764537721691	8
0	4745	7504.105172187708	9
0	4747	7504.711166391717	10
0	4749	7504.95958523031	9
0	4752	7508.423886503079	10
0	4754	7515.951690543546	11
0	4756	7516.913237128923	10
0	4759	7520.897051491235	9
0	4762	7523.994407776146	8
0	4765	7529.036311214643	7
0	4768	7530.113632240678	6
0	4770	7532.660168132869	7
0	4773	7539.400288054744	6
0	4775	7543.439406650952	5
0	4777	7544.856129576398	4
0	4779	7550.456407955529	5
0	4782	7554.196489417817	6
0	4785	7555.37009989208	5
0	4787	7555.697066350821	6
0	4790	7556.538026822878	5
0	4792	7561.838550216874	4
0	4794	7562.753317867221	5
0	4797	7563.205771422628	4
0	4799	7572.322213915991	5
0	4802	7573.382060058811	6
0	4805	7580.825790095064	7
0	4808	7581.657418171593	8
0	4810	7582.765175559954	7
0	4813	7585.369518688627	6
0	4815	7586.836895106232	5
0	4817	7586.843715554231	6
0	4820	7590.775479733351	5
0	4822	7590.822144140404	4
0	4824	7593.506435876645	5
0	4827	7605.354071302827	6
0	4830	7614.663538072261	5
0	4832	7621.364741398189	6
0	4835	7623.022462730587	7
0	4838	7625.02316525221	6
0	4840	7626.587307746028	7
0	4843	7627.907529840696	6
0	4845	7628.97432985648	7
0	4848	7629.350875824525	8
0	4850	7630.020624823735	7
0	4853	7639.270571977297	6
0	4855	7642.422557538757	7
0	4858	7642.808058260487	6
0	4860	7644.042115241601	5
0	4862	7647.411404358008	4
0	4864	7664.867518679846	3
0	4866	7666.611596843103	2
0	4868	7673.852877938026	1
0	4870	7677.233315351298	2
0	4873	7686.128641484264	1
0	4875	7693.196064927803	2
0	4878	7696.076044722018	3
0	4881	7697.602633087501	2
0	4883	7700.689784208169	3
0	4886	7707.686712973915	4
0	4889	7711.945726748162	5
0	4892	7715.4764073972	4
0	4894	7715.910482086049	3
0	4896	7721.27940071829	4
0	4899	7724.252834509723	3
0	4901	7739.715195628613	4
0	4904	7741.774120129218	3
0	4906	7742.165300534904	4
0	4909	7744.961483746716	5
0	4912	7749.048684844818	4
0	4914	7749.051744993467	5
0	4917	7749.83572546431	4
0	4919	7755.460768041595	3
0	4921	7758.922346175693	2
0	4923	7770.316485594811	1
0	4925	7774.784447465501	2
0	4928	7820.598593299942	3
0	4931	7825.590545306554	4
0	4934	7826.390641604996	5
0	4937	7827.238425124751	6
0	4940	7828.592872139656	5
0	4942	7839.001725796315	4
0	4944	7840.092546432147	5
0	4947	7840.147060740185	6
0	4950	7840.730618736381	5
0	4952	7843.525197647493	6
0	4955	7843.796855498374	5
0	4957	7850.695454034554	4
0	4959	7859.849854302194	3
0	4961	7865.15884484138	2
0	4963	7865.690195999235	3
0	4966	7867.088483769456	4
0	4969	7868.67589863824	3
0	4971	7875.250834325238	4
0	4974	7875.595207542621	5
0	4977	7877.352467552998	4
0	4979	7881.050053976462	3
0	4981	7882.80797848082	4
0	4984	7887.545094154898	5
0	4987	7892.367247646656	6
0	4990	7900.649658752839	5
0	4992	7901.128199923242	6
0	4995	7905.301922170003	7
0	4998	7910.697628961549	8
0	5000	7914.320835343447	7
0	5003	7915.193648348069	8
0	5005	7917.651624360246	7
0	5008	7931.893974795853	8
0	5010	7935.796682308259	7
0	5013	7949.022575190175	6
0	5015	7956.718176909346	5
0	5017	7959.820445153665	6
0	5020	7969.091512961371	5
0	5022	7969.910493110411	4
0	5024	7976.332842120581	3
0	5026	7989.556183502066	4
0	5029	7995.532011690244	5
0	5032	7999.784877619724	6
0	5035	8001.00786762236	7
0	5038	8001.535962032625	6
0	5040	8008.568318540038	5
0	5042	8011.203129209344	4
0	5044	8014.345904297138	5
0	5047	8017.998648245391	4
0	5049	8018.824875579286	5
0	5052	8032.420318494443	6
0	5055	8032.838267936689	5
0	5057	8040.411043176393	4
0	5059	8056.798098701435	3
0	5061	8057.163301817647	2
0	5063	8057.437925607292	3
0	5066	8060.342789216405	2
0	5068	8060.480830326906	3
0	5071	8061.174075139799	2
0	5073	8067.795742654441	1
0	5075	8068.8525864262	2
0	5078	8078.743172533221	1
0	5080	8079.261888047662	2
0	5083	8087.068435796381	1
0	5085	8110.676677871013	2
0	5088	8119.204168250787	1
0	5090	8124.658465368159	2
0	5093	8136.274282449933	3
0	5096	8136.436370826988	4
0	5099	8136.488458281806	5
0	5102	8139.573676096795	4
0	5104	8140.153926513851	5
0	5107	8154.411483399934	6
0	5110	8160.686016906297	5
0	5112	8162.261365557968	6
0	5115	8167.027615608646	7
0	5118	8168.134990104979	8
0	5120	8168.531847958425	7
0	5123	8170.054466640143	6
0	5125	8170.395905512141	5
0	5127	8174.911799414204	4
0	5129	8201.159002813429	3
0	5131	8203.959658118236	4
0	5134	8207.951758934385	3
0	5136	8211.409140820056	2
0	5138	8215.400432822836	3
0	5141	8225.503365355658	2
0	5143	8238.74767148421	3
0	5146	8240.098515721392	4
0	5149	8241.338569783793	3
0	5151	8242.753988346793	2
0	5153	8243.235227368317	1
0	5155	8246.589980542984	2
0	5158	8246.870488278799	3
0	5161	8258.76244623757	4
0	5164	8259.410509704591	5
0	5167	8267.007434467468	6
0	5170	8275.703407662669	7
0	5173	8278.6658831704	8
0	5175	8280.879437614062	9
0	5177	8283.035417882648	8
0	5180	8285.16302382822	7
0	5183	8287.946411807949	6
0	5185	8288.240614902968	7
0	5188	8292.342169023146	6
0	5190	8296.941595559712	5
0	5192	8299.664784456852	4
0	5194	8299.853535845136	3
0	5196	8303.442142801469	4
0	5199	8313.016340035642	3
0	5201	8317.851644028753	4
0	5204	8326.158129687873	5
0	5207	8327.007941264229	4
0	5209	8332.596148568861	3
0	5211	8348.953290957376	2
0	5213	8351.813519515122	1
0	5215	8352.646079475225	0
0	5217	8355.894209498731	1
0	5220	8363.982342190084	2
0	5223	8372.45371911617	3
0	5226	8386.561028880442	2
0	5228	8387.580561546238	1
0	5230	8395.445130876349	2
0	5233	8396.186123297177	1
0	5235	8396.953635137099	2
0	5238	8399.048989120771	3
0	5241	8402.577553213023	4
0	5244	8407.363051159226	3
0	5246	8410.972642330779	2
0	5248	8414.921458828826	3
0	5251	8419.181348412673	4
0	5254	8432.795243060135	3
0	5256	8433.823149346288	4
0	5259	8433.944132590581	3
0	5261	8434.990607261359	2
0	5263	8444.164591884976	3
0	5266	8449.781324673568	2
0	5268	8457.88628268169	3
0	5271	8462.466171742443	4
0	5274	8462.648178373123	3
0	5276	8472.190526070107	4
0	5279	8473.503415918288	3
0	5281	8479.06968968156	4
0	5284	8479.534423149867	3
0	5286	8480.797783545837	2
0	5288	8485.066812775209	3
0	5291	8487.730757243624	4
0	5294	8495.869320635882	5
0	5297	8498.960402573732	6
0	5300	8501.965062089512	5
0	5302	8512.891571699477	4
0	5304	8523.833832409381	3
0	5306	8524.643760984817	2
0	5308	8532.516919795697	1
0	5310	8535.965703433685	2
0	5313	8541.553131245249	1
0	5315	8556.193003159602	2
0	5318	8558.239076064955	3
0	5321	8560.012606350473	2
0	5323	8567.225456634668	1
0	5325	8568.601523437844	2
0	5328	8581.720533187405	3
0	5331	8585.690958480002	4
0	5334	8587.509191106174	3
0	5336	8592.945552955033	4
0	5339	8603.075090189504	5
0	5342	8603.975529928767	4
0	5344	8604.518476204938	5
0	5347	8605.513821810433	4
0	5349	8609.4621404232	3
0	5351	8610.63823646901	4
0	5354	8617.030842151707	5
0	5357	8619.02231390235	4
0	5359	8623.621665158237	3
0	5361	8635.141133600177	2
0	5363	8638.871215470128	3
0	5366	8642.332505563042	4
0	5369	8643.745645161632	5
0	5372	8652.121630467975	4
0	5374	8658.476153410212	3
0	5376	8662.786649811759	4
0	5379	8667.576506370216	5
0	5382	8672.500157078286	6
0	5385	8676.522972993535	5
0	5387	8678.370124432971	6
0	5390	8679.915644078399	5
0	5392	8680.326017086669	4
0	5394	8705.463867674771	3
0	5396	8708.485891161457	2
0	5398	8717.367973978166	3
0	5401	8722.315532098401	2
0	5403	8728.119349480124	3
0	5406	8728.919982312388	4
0	5409	8729.266168370263	5
0	5412	8740.63978550986	4
0	5414	8742.076874272461	5
0	5417	8744.910638505429	4
0	5419	8749.87236936869	5
0	5422	8752.014107446974	4
0	5424	8756.161062872064	5
0	5427	8756.839310439026	4
0	5429	8765.281719441436	5
0	5432	8768.158761320081	4
0	5434	8781.400322159064	3
0	5436	8781.782346156164	2
0	5438	8799.916564255629	3
0	5441	8802.113828989231	2
0	5443	8806.970852550887	3
0	5446	8808.22178162167	2
0	5448	8817.947541419058	1
0	5450	8820.881246792018	2
0	5453	8822.988913019503	3
0	5456	8823.987490249574	2
0	5458	8846.663803900944	3
0	5461	8851.926533158795	4
0	5464	8860.294824137264	5
0	5467	8865.567509511406	6
0	5470	8868.217197443344	5
0	5472	8869.501470877078	6
0	5475	8871.599959135858	7
0	5478	8874.752098405501	6
0	5480	8882.631439702849	5
0	5482	8882.751438204761	6
0	5485	8883.046241201102	7
0	5488	8884.052087878491	6
0	5490	8884.078574278775	5
0	5492	8884.812056958475	6
0	5495	8888.150619618425	5
0	5497	8888.560325593485	6
0	5500	8889.829712641171	5
0	5502	8890.602662937429	4
0	5504	8893.402620104085	5
0	5507	8897.336048112055	6
0	5510	8902.467534858913	5
0	5512	8903.23525406604	4
0	5514	8907.479917648439	5
0	5517	8910.054263787022	4
0	5519	8911.196531648854	5
0	5522	8923.198764802235	4
0	5524	8924.594516076305	3
0	5526	8943.773222286571	4
0	5529	8944.720445261288	5
0	5532	8945.62944032045	4
0	5534	8950.152732357775	3
0	5536	8956.762937565987	2
0	5538	8963.83633020332	3
0	5541	8967.257639728549	4
0	5544	8968.476747618871	5
0	5547	8972.111776225722	4
0	5549	8976.528658927638	5
0	5552	8977.945361849581	4
0	5554	8979.531887499653	5
0	5557	8981.769190258303	6
0	5560	8982.2459753827	5
0	5562	8983.675660714448	4
0	5564	8988.894732472506	5
0	5567	8993.202109961611	6
0	5570	9010.761753458977	5
0	5572	9013.969249090907	4
0	5574	9015.189138197646	3
0	5576	9016.658480493493	2
0	5578	9035.71733645112	3
0	5581	9037.294605795788	4
0	5584	9043.685094591457	5
0	5587	9044.18032408208	4
0	5589	9046.457830650774	3
0	5591	9047.384357766329	2
0	5593	9050.482332329346	3
0	5596	9051.065946552031	4
0	5599	9051.755539996614	3
0	5601	9057.356438184814	2
0	5603	9073.756802036273	3
0	5606	9073.878888290279	2
0	5608	9079.66731374217	1
0	5610	9083.304542151702	2
0	5613	9086.793994360546	3
0	5616	9093.388555979831	4
0	5619	9095.297417791954	3
0	5621	9095.772295319601	4
0	5624	9102.052245184364	3
0	5626	9104.268884976263	4
0	5629	9118.517294445452	5
0	5632	9123.621742253006	4
0	5634	9124.380642347148	5
0	5637	9125.187592375983	4
0	5639	9128.847781361809	3
0	5641	9134.277270387541	4
0	5644	9138.761371303886	5
0	5647	9141.031114384784	4
0	5649	9141.896389020433	3
0	5651	9151.366150693159	2
0	5653	9155.114588646744	1
0	5655	9162.843859865827	2
0	5658	9163.388167064591	3
0	5661	9164.874058536283	4
0	5664	9168.120015794998	5
0	5667	9168.850173478814	6
0	5670	9175.436904030319	5
0	5672	9182.694225637731	4
0	5674	9182.950621377768	5
0	5677	9183.188047332855	4
0	5679	9205.407674475391	5
0	5682	9205.728509908455	6
0	5685	9214.341400207497	7
0	5688	9223.62342349588	8
0	5690	9226.750277441639	9
0	5692	9231.496453437493	10
0	5694	9238.400018974599	9
0	5697	9243.216875597128	8
0	5700	9246.187293114915	7
0	5703	9249.874131247219	6
0	5705	9251.412776841916	7
0	5708	9252.141455429608	6
0	5710	9255.905612038152	7
0	5713	9260.722554949277	6
0	5715	9265.292422099566	7
0	5718	9265.473761374846	6
0	5720	9267.796180007907	5
0	5722	9277.66690660803	6
0	5725	9278.546194018438	5
0	5727	9287.166248372455	6
0	5730	9287.696249951242	5
0	5732	9289.521903921617	6
0	5735	9290.314567892248	7
0	5738	9292.362947901244	8
0	5740	9294.125026234436	7
0	5743	9295.85868773488	6
0	5745	9301.077770866157	5
0	5747	9306.333164365538	4
0	5749	9306.39641125852	5
0	5752	9310.553194319305	6
0	5755	9310.796146632512	7
0	5758	9312.600965853076	6
0	5760	9313.538628678176	7
0	5763	9320.37321465569	8
0	5765	9325.410262601227	7
0	5768	9326.659019985998	6
0	5770	9332.277086617535	5
0	5772	9339.434227004616	6
0	5775	9349.500187521591	5
0	5777	9350.596621725883	4
0	5779	9361.069877161716	5
0	5782	9365.180621054596	6
0	5785	9366.775216549872	5
0	5787	9371.098340959702	4
0	5789	9371.377477294958	5
0	5792	9372.312601233033	4
0	5794	9379.87817917457	3
0	5796	9382.294732936336	2
0	5798	9387.775535721573	3
0	5801	9389.100192903935	4
0	5804	9395.273781837429	5
0	5807	9399.189260899018	4
0	5809	9399.620419124713	3
0	5811	9402.631738335869	4
0	5814	9409.149219457051	5
0	5817	9410.138874832031	4
0	5819	9411.882350035485	3
0	5821	9415.926066040738	4
0	5824	9416.140908247953	3
0	5826	9421.824064412535	2
0	5828	9425.082814573241	1
0	5830	9426.735720385285	2
0	5833	9432.006332813048	3
0	5836	9432.605011364173	2
0	5838	9436.498710769153	3
0	5841	9439.192380662008	4
0	5844	9445.353600701228	3
0	5846	9451.62928200445	4
0	5849	9458.142750969311	5
0	5852	9463.159866323242	6
0	5855	9471.326217465551	5
0	5857	9472.434928623355	6
0	5860	9479.180403360117	5
0	5862	9483.739781206905	6
0	5865	9486.572215750579	7
0	5868	9489.266996193484	6
0	5870	9490.902319702806	5
0	5872	9491.364588725447	4
0	5874	9494.834428651164	5
0	5877	9494.866744474791	4
0	5879	9503.01096439546	5
0	5882	9505.327934996489	6
0	5885	9505.758390169064	7
0	5888	9515.425150138457	8
0	5890	9519.600819228309	7
0	5893	9520.984966867054	6
0	5895	9523.530249817302	5
0	5897	9529.514874294095	6
0	5900	9534.515966633735	5
0	5902	9537.95583220009	4
0	5904	9541.070829299603	5
0	5907	9542.362418172169	6
0	5910	9544.214292309231	7
0	5913	9552.000300173963	6
0	5915	9553.35257509521	5
0	5917	9554.005614628941	6
0	5920	9554.475004073113	5
0	5922	9562.365690103398	6
0	5925	9563.538732256672	5
0	5927	9567.776636174289	4
0	5929	9571.99717281173	5
0	5932	9575.991267844246	6
0	5935	9578.227482994412	7
0	5938	9579.246121197924	6
0	5940	9583.97027984864	5
0	5942	9586.640925475154	6
0	5945	9587.605990672126	7
0	5948	9589.545942906892	8
0	5950	9589.973763926391	7
0	5953	9591.405251615395	8
0	5955	9592.813161307028	9
0	5957	9594.700707494936	10
0	5959	9598.939267287716	9
0	5962	9602.226824799875	10
0	5964	9605.03804691975	9
0	5967	9605.489833020585	8
0	5970	9606.638505136564	9
0	5972	9606.958795194709	8
0	5975	9616.034347262301	7
0	5978	9618.463861074104	6
0	5980	9622.244804497876	7
0	5983	9626.871516854257	8
0	5985	9630.747743713544	7
0	5988	9632.888435833232	6
0	5990	9633.260462509838	5
0	5992	9634.336328141614	4
0	5994	9637.614426190076	3
0	5996	9645.351722938917	4
0	5999	9645.70754414934	5
0	6002	9648.940633808866	4
0	6004	9648.956379604535	3
0	6006	9652.72132764488	4
0	6009	9661.339950326325	5
0	6012	9665.439804412938	6
0	6015	9667.032313808988	7
0	6018	9668.255869328598	6
0	6020	9669.082469435199	5
0	6022	9680.793039617176	4
0	6024	9683.058431605226	5
0	6027	9688.306163187415	4
0	6029	9696.740242782312	5
0	6032	9704.069489493634	4
0	6034	9711.575870514	3
0	6036	9716.951870861642	4
0	6039	9732.314158763074	3
0	6041	9733.422198250473	4
0	6044	9755.09273841721	3
0	6046	9756.368684253607	2
0	6048	9758.346677551348	3
0	6051	9759.51400615238	2
0	6053	9766.605490032603	3
0	6056	9768.025041292315	2
0	6058	9769.722983431664	3
0	6061	9771.492238013031	2
0	6063	9775.219820336564	3
0	6066	9779.74840731461	4
0	6069	9781.020418882368	3
0	6071	9799.909065028025	2
0	6073	9802.049708153367	3
0	6076	9812.869196545995	4
0	6079	9819.626651886378	5
0	6082	9821.007668123622	6
0	6085	9823.038751202642	5
0	6087	9823.350648598871	6
0	6090	9841.202582302196	7
0	6093	9841.454031934315	8
0	6095	9845.696274068345	9
0	6097	9845.877070576852	10
0	6099	9847.729953717247	11
0	6101	9848.144921954576	10
0	6104	9851.683198516677	11
0	6106	9865.73209273222	10
0	6109	9868.704729756481	11
0	6111	9869.537794824064	12
0	6113	9869.617769685987	13
0	6115	9870.407310200148	14
0	6117	9875.729031883464	13
0	6120	9878.743564339047	14
0	6122	9880.347182312892	13
0	6125	9881.174069786164	12
0	6128	9883.16752447032	11
0	6131	9885.073153270528	10
0	6134	9891.318578851606	11
0	6136	9898.163543988881	10
0	6139	9899.604675639167	11
0	6141	9900.908270125296	10
0	6144	9903.765269911703	11
0	6146	9904.204578867925	12
0	6148	9906.828074232263	11
0	6151	9914.827664595405	10
0	6154	9915.206123624738	9
0	6157	9921.692870258539	8
0	6160	9922.574520937997	9
0	6162	9928.766154701364	10
0	6164	9929.665044557051	9
0	6167	9930.119565425349	8
0	6170	9932.208063429539	9
0	6172	9933.007059428875	8
0	6175	9933.422672916991	7
0	6178	9933.631498186359	6
0	6180	9934.229330566144	5
0	6182	9935.227427872429	6
0	6185	9939.337447041752	7
0	6188	9939.544950577185	8
0	6190	9947.905813467908	7
0	6193	9948.680719327366	6
0	6195	9951.068110542651	5
0	6197	9953.807496394783	4
0	6199	9953.813594656405	5
0	6202	9962.861555968447	4
0	6204	9965.490948822648	3
0	6206	9976.078017829462	2
0	6208	9982.68429556958	3
0	6211	9985.308728968185	4
0	6214	9989.997980550977	5
0	6217	9995.940062284016	6
0	6220	9997.56999037749	5
0	6222	10000.132774626957	6
0	6225	10004.085255919631	5
0	6227	10008.391869680586	4
0	6229	10010.34853557634	3
0	6231	10010.642891700799	2
0	6233	10014.444972839454	1
0	6235	10029.425613887195	2
0	6238	10038.212999977784	3
0	6241	10041.76631207375	4
0	6244	10043.106118881981	3
0	6246	10044.0166363957	4
0	6249	10048.017003556047	3
0	6251	10055.016911842482	4
0	6254	10060.523242969664	3
0	6256	10060.546400131524	4
0	6259	10069.816654864231	3
0	6261	10072.37060310782	4
0	6264	10083.786024701638	3
0	6266	10086.743446641174	2
0	6268	10087.574458716301	3
0	6271	10089.987582522208	2
0	6273	10098.911189780459	3
0	6276	10114.885633581885	4
0	6279	10120.556412512357	5
0	6282	10130.978077202731	4
0	6284	10147.864571083754	3
0	6286	10149.223006285074	4
0	6289	10153.594512931324	5
0	6292	10158.847375906566	4
0	6294	10166.94087509852	5
0	6297	10168.464566217929	6
0	6300	10170.073660630795	5
0	6302	10171.252191065021	4
0	6304	10176.908384409491	5
0	6307	10177.20976954095	6
0	6310	10180.115785031996	7
0	6313	10181.594218988512	8
0	6315	10182.634927633895	9
0	6317	10184.691123190486	10
0	6319	10185.800128497684	9
0	6322	10186.02780002276	8
0	6325	10188.900885600328	9
0	6327	10193.396349072878	8
0	6330	10193.639125973153	9
0	6332	10209.92166831484	8
0	6335	10212.240614580728	9
0	6337	10218.381937704227	8
0	6340	10221.756661774683	7
0	6343	10225.918402196233	8
0	6345	10226.554767714612	7
0	6348	10235.337255261206	8
0	6350	10237.431037285581	7
0	6353	10241.135609091607	8
0	6355	10242.929219429728	9
0	6357	10249.479639012001	8
0	6360	10250.205237853369	9
0	6362	10250.911802629919	8
0	6365	10258.783512745688	7
0	6368	10261.509877554879	8
0	6370	10274.505061002776	7
0	6373	10275.338236345712	6
0	6375	10281.687163571457	5
0	6377	10282.412165403946	6
0	6380	10291.973576545703	7
0	6383	10303.330290070678	6
0	6385	10308.00561578143	5
0	6387	10308.64635504144	6
0	6390	10314.107884706559	5
0	6392	10316.97971278701	6
0	6395	10317.62453380056	7
0	6398	10320.292579493443	6
0	6400	10321.895162260765	5
0	6402	10324.839627828181	6
0	6405	10327.137944683939	5
0	6407	10339.293350097091	6
0	6410	10340.993673118729	7
0	6413	10362.900585076623	6
0	6415	10369.223841168693	7
0	6418	10376.14028933901	8
0	6420	10383.501704325338	7
0	6423	10388.824008697823	8
0	6425	10390.851125004024	9
0	6427	10394.884430781345	10
0	6429	10401.592484698875	11
0	6431	10404.033491163996	10
0	6434	10409.502359512954	11
0	6436	10414.002417939772	10
0	6439	10418.833974561574	11
0	6441	10419.410258148515	12
0	6443	10420.427567402819	11
0	6446	10427.455272081936	10
0	6449	10436.582199330604	11
0	6451	10439.824048868554	12
0	6453	10442.298944534529	11
0	6456	10445.528256190165	12
0	6458	10450.751560688098	13
0	6460	10452.752542703695	12
0	6463	10458.160890788882	13
0	6465	10462.296415506791	12
0	6468	10467.210816421526	13
0	6470	10469.618066041733	14
0	6472	10471.960451901906	15
0	6474	10473.993830801698	14
0	6477	10476.579058724195	15
0	6479	10481.304751379789	14
0	6482	10486.418333908954	13
0	6485	10488.79840232318	12
0	6488	10490.325611929097	11
0	6491	10491.049773254327	10
0	6494	10496.976653082857	11
0	6496	10500.983449405414	10
0	6499	10506.310515781848	9
0	6502	10507.100633405123	10
0	6504	10508.660971587333	9
0	6507	10511.638228529837	10
0	6509	10511.679452455045	9
0	6512	10517.842451865448	8
0	6515	10518.005666119575	9
0	6517	10519.094254538239	10
0	6519	10519.192654498801	11
0	6521	10522.292310880787	12
0	6523	10529.877184006592	11
0	6526	10531.444426886166	12
0	6528	10532.362953748518	11
0	6531	10533.085648949224	10
0	6534	10536.063353849643	11
0	6536	10536.104974856567	12
0	6538	10536.372183726196	11
0	6541	10546.434323762374	10
0	6544	10547.458878538269	9
0	6547	10553.944006447786	8
0	6550	10557.472384218414	9
0	6552	10560.344857014424	10
0	6554	10565.785961650036	11
0	6556	10572.293697399702	10
0	6559	10573.111512769961	11
0	6561	10576.031210640388	10
0	6564	10577.726724985383	11
0	6566	10583.211741195142	12
0	6568	10595.475867832479	13
0	6570	10596.264148985852	14
0	6572	10600.786033169678	15
0	6574	10601.492003470246	14
0	6577	10601.804388299535	13
0	6580	10604.602244770323	12
0	6583	10606.572678876206	11
0	6586	10607.828612554055	10
0	6589	10612.589703644797	9
0	6592	10615.825362644363	8
0	6595	10617.207229124053	9
0	6597	10619.803061751726	8
0	6600	10625.671783333066	7
0	6603	10626.883074997123	6
0	6605	10628.539213604144	5
0	6607	10629.315998018927	4
0	6609	10636.26396344865	3
0	6611	10642.828649919031	2
0	6613	10642.966716455285	3
0	6616	10643.479925650045	4
0	6619	10645.965112210775	3
0	6621	10650.87163520872	4
0	6624	10656.425703869904	5
0	6627	10659.746121305355	4
0	6629	10661.532365998057	5
0	6632	10663.368771236063	4
0	6634	10665.757531247736	3
0	6636	10666.304453757527	4
0	6639	10667.572287669495	3
0	6641	10668.850653080416	4
0	6644	10673.085600038538	3
0	6646	10682.082522345059	2
0	6648	10687.160333825624	1
0	6650	10698.166939684078	2
0	6653	10700.274885919731	1
0	6655	10718.509480186317	2
0	6658	10725.304258271374	3
0	6661	10725.882553440182	4
0	6664	10743.368961549567	3
0	6666	10752.069034777679	4
0	6669	10774.536479622913	3
0	6671	10783.121558235143	4
0	6674	10783.374064943625	5
0	6677	10796.543853348191	6
0	6680	10796.91140275206	5
0	6682	10798.542389638402	4
0	6684	10800.462096447651	5
0	6687	10801.456508088196	6
0	6690	10802.664239807565	7
0	6693	10803.008303181447	6
0	6695	10804.584466771251	7
0	6698	10806.77825736857	8
0	6700	10811.373559761776	9
0	6702	10811.71541969885	8
0	6705	10813.044958191056	9
0	6707	10813.827629471131	8
0	6710	10813.862250904999	7
0	6713	10819.019972235713	8
0	6715	10820.096779706996	7
0	6718	10822.198915328945	6
0	6720	10822.419404285945	7
0	6723	10828.102319825286	6
0	6725	10829.422907754658	7
0	6728	10833.004203490549	6
0	6730	10838.94255823102	7
0	6733	10841.563138756243	6
0	6735	10841.771834890082	5
0	6737	10846.185358262481	6
0	6740	10846.923342864655	5
0	6742	10852.519704466003	6
0	6745	10858.737206453552	5
0	6747	10859.14623217495	6
0	6750	10863.324079734099	7
0	6753	10864.686925766168	6
0	6755	10869.280813241013	7
0	6758	10871.211067105029	8
0	6760	10871.74542001205	7
0	6763	10875.416154525793	6
0	6765	10879.144098864776	5
0	6767	10882.478073160995	4
0	6769	10884.340419388742	5
0	6772	10885.326585399213	6
0	6775	10888.963142997589	7
0	6778	10889.188696103104	8
0	6780	10906.294932130985	9
0	6782	10909.300693678353	8
0	6785	10909.632814878239	7
0	6788	10917.716815572011	6
0	6790	10917.885700483363	7
0	6793	10918.881590910145	6
0	6795	10920.595967677712	7
0	6798	10928.973477265241	6
0	6800	10932.238653005282	7
0	6803	10932.384721320108	8
0	6805	10941.970384122476	9
0	6807	10942.15140513637	8
0	6810	10953.852397818346	9
0	6812	10956.355502377206	8
0	6815	10958.729832582229	7
0	6818	10964.428312662551	6
0	6820	10965.67497462983	7
0	6823	10966.666977186576	6
0	6825	10967.867262964717	5
0	6827	10972.807354556987	6
0	6830	10974.454159445741	7
0	6833	10981.576627773544	6
0	6835	10986.862215234921	5
0	6837	11000.573039945106	6
0	6840	11000.986330562206	5
0	6842	11007.364391732023	6
0	6845	11013.030504901729	7
0	6848	11015.417240135832	6
0	6850	11017.448059520565	5
0	6852	11018.500920506947	4
0	6854	11031.759330601371	3
0	6856	11038.122976215763	4
0	6859	11041.090698071959	5
0	6862	11044.718273785468	4
0	6864	11047.99998206714	5
0	6867	11048.478665395744	6
0	6870	11049.623436913472	5
0	6872	11055.309573301813	6
0	6875	11062.838405314843	7
0	6878	11064.153461375872	6
0	6880	11068.790312372867	5
0	6882	11074.323376858504	4
0	6884	11085.262515568938	5
0	6887	11086.518504789446	4
0	6889	11091.644159230636	3
0	6891	11095.673579265079	2
0	6893	11101.690633696705	3
0	6896	11107.771867582439	2
0	6898	11112.144732155561	1
0	6900	11125.298154235627	2
0	6903	11141.538682447919	3
0	6906	11156.316825042346	4
0	6909	11158.132612157656	5
0	6912	11161.398082238327	6
0	6915	11165.455313889692	5
0	6917	11169.304985150142	4
0	6919	11170.993695074971	3
0	6921	11171.355886564696	4
0	6924	11173.48169649443	5
0	6927	11177.647535157929	6
0	6930	11177.687264954349	5
0	6932	11177.703632376687	6
0	6935	11180.745588374357	7
0	6938	11189.091280688122	6
0	6940	11194.579058820812	5
0	6942	11203.89488240706	4
0	6944	11210.372864181062	5
0	6947	11211.704268621192	6
0	6950	11218.618361682459	7
0	6953	11219.633337764656	6
0	6955	11220.655038282708	5
0	6957	11229.530623372173	6
0	6960	11229.961151858543	7
0	6963	11239.00971930662	8
0	6965	11244.142183740044	9
0	6967	11248.858554710917	8
0	6970	11249.257712237622	7
0	6973	11250.197081093999	6
0	6975	11251.382672124382	7
0	6978	11253.640304519725	6
0	6980	11253.989685704936	5
0	6982	11254.650357724881	4
0	6984	11258.763348090899	5
0	6987	11263.705505152799	4
0	6989	11264.172364292478	3
0	6991	11270.253189040526	4
0	6994	11275.162743642121	3
0	6996	11279.907665676511	2
0	6998	11280.550844256971	3
0	7001	11286.036082986622	2
0	7003	11295.784335560092	3
0	7006	11301.024095184751	2
0	7008	11304.813670134147	1
0	7010	11308.55251825707	2
0	7013	11312.76714207158	1
0	7015	11316.140053195174	2
0	7018	11316.90287870483	1
0	7020	11325.205235486843	2
0	7023	11340.09493356238	3
0	7026	11344.269424013061	2
0	7028	11365.999843534325	1
0	7030	11367.342844305918	2
0	7033	11369.367575291239	3
0	7036	11371.980805192248	4
0	7039	11372.460828853548	5
0	7042	11382.613234553325	6
0	7045	11388.588186002203	7
0	7048	11389.485832479128	8
0	7050	11391.398809799162	7
0	7053	11393.979267017328	8
0	7055	11397.748586693685	7
0	7058	11399.704271051395	6
0	7060	11401.09907894779	7
0	7063	11401.924204176712	6
0	7065	11406.375720721986	5
0	7067	11410.057962746606	6
0	7070	11412.976745595297	7
0	7073	11416.008951765672	6
0	7075	11416.460116150938	5
0	7077	11421.409117256523	4
0	7079	11424.918147173993	3
0	7081	11434.384778925331	4
0	7084	11438.234387579793	3
0	7086	11441.177816196682	4
0	7089	11448.868732845359	5
0	7092	11458.994708587032	4
0	7094	11468.646251057552	3
0	7096	11469.46172218824	2
0	7098	11478.057084722253	3
0	7101	11481.062084477128	4
0	7104	11483.265022775814	5
0	7107	11486.936716656616	4
0	7109	11487.30535282914	3
0	7111	11489.971429886405	2
0	7113	11504.499313599801	1
0	7115	11512.318877844758	2
0	7118	11512.580251413883	1
0	7120	11523.114653182132	2
0	7123	11525.475245542632	3
0	7126	11533.408171056098	2
0	7128	11535.506798812499	1
0	7130	11539.849376133062	2
0	7133	11540.514571667601	3
0	7136	11542.662935048732	4
0	7139	11544.490685055448	3
0	7141	11545.863363018312	4
0	7144	11552.034520606512	3
0	7146	11553.202165230353	2
0	7148	11554.013376694644	3
0	7151	11559.995712933925	4
0	7154	11561.210637339855	5
0	7157	11565.950422398637	4
0	7159	11568.820030617569	5
0	7162	11570.345686867394	6
0	7165	11571.005287771699	7
0	7168	11571.374280764349	6
0	7170	11575.548095330735	5
0	7172	11576.724279818849	6
0	7175	11582.358186705053	5
0	7177	11594.869503538073	6
0	7180	11597.794431358467	7
0	7183	11599.76744049375	6
0	7185	11600.790299458214	5
0	7187	11603.740592533029	4
0	7189	11605.98631828854	5
0	7192	11610.311076786382	6
0	7195	11610.88149111785	5
0	7197	11618.787359696416	4
0	7199	11619.794234800579	5
0	7202	11621.600288553307	6
0	7205	11624.340503765018	7
0	7208	11626.993732736303	6
0	7210	11627.218349025427	5
0	7212	11627.360771526809	4
0	7214	11649.663800906637	5
0	7217	11654.313010139973	4
0	7219	11657.40615085694	5
0	7222	11657.408988449948	6
0	7225	11657.581925449916	5
0	7227	11657.634613243319	6
0	7230	11665.489642957284	7
0	7233	11671.296595577199	8
0	7235	11671.443131829625	7
0	7238	11671.858836065466	6
0	7240	11673.05361820789	7
0	7243	11674.141486001553	8
0	7245	11682.309284447719	7
0	7248	11687.722847647782	8
0	7250	11689.457362529722	7
0	7253	11691.537895479155	6
0	7255	11692.864264028234	7
0	7258	11692.956484841251	6
0	7260	11693.353456887707	7
0	7263	11693.929720518566	6
0	7265	11697.028621952367	7
0	7268	11708.855297740867	8
0	7270	11713.718718643796	7
0	7273	11716.390609179339	8
0	7275	11717.88407554575	7
0	7278	11719.197951131024	6
0	7280	11720.880410879777	5
0	7282	11721.301774517368	4
0	7284	11725.588069603619	5
0	7287	11726.066528012947	4
0	7289	11731.080338601188	3
0	7291	11734.398523786088	4
0	7294	11741.269567366112	3
0	7296	11741.370030965577	4
0	7299	11751.120459188771	5
0	7302	11752.676926930863	6
0	7305	11759.55555540607	5
0	7307	11762.509066911167	6
0	7310	11762.558928102518	5
0	7312	11763.320347831671	6
0	7315	11765.716781289229	7
0	7318	11770.558296299012	8
0	7320	11771.93860519855	7
0	7323	11773.803293348022	8
0	7325	11775.164617908187	7
0	7328	11778.706091277527	6
0	7330	11782.453113044453	7
0	7333	11783.71656863698	8
0	7335	11784.286038250453	9
0	7337	11784.462788050193	8
0	7340	11787.998366288074	7
0	7343	11793.254129130562	6
0	7345	11796.007229651155	5
0	7347	11796.95322381076	6
0	7350	11799.569623315533	7
0	7353	11799.673485166869	8
0	7355	11800.542934812894	7
0	7358	11806.836348867771	6
0	7360	11809.886899127358	5
0	7362	11811.677193813575	6
0	7365	11813.042923902529	7
0	7368	11813.437694130719	8
0	7370	11813.465159147936	7
0	7373	11817.597234813732	6
0	7375	11824.855208854629	5
0	7377	11825.485869397572	6
0	7380	11826.683212411035	5
0	7382	11831.089851877204	4
0	7384	11836.225371481037	3
0	7386	11844.249593731001	4
0	7389	11844.488176934733	5
0	7392	11844.662975441157	4
0	7394	11846.33539837583	5
0	7397	11849.3390079656	6
0	7400	11849.454291852979	5
0	7402	11849.764019625479	6
0	7405	11850.000939962433	5
0	7407	11850.519395808015	6
0	7410	11854.271020802497	5
0	7412	11858.906869131577	4
0	7414	11864.333803484451	5
0	7417	11868.165361130207	6
0	7420	11868.328342762447	5
0	7422	11872.639961978008	4
0	7424	11877.214429085942	5
0	7427	11878.639284804559	6
0	7430	11883.266774135129	7
0	7433	11885.78957862151	8
0	7435	11886.932527855264	7
0	7438	11888.4516027389	8
0	7440	11892.382237999972	7
0	7443	11896.475249140821	6
0	7445	11903.400339579662	7
0	7448	11905.201373620739	8
0	7450	11906.423356326777	7
0	7453	11909.679131659471	8
0	7455	11911.24108476637	9
0	7457	11919.896580262815	10
0	7459	11922.051428612037	9
0	7462	11925.07331823393	8
0	7465	11928.844327848339	7
0	7468	11930.411287582289	6
0	7470	11933.130484160789	7
0	7473	11944.036062962503	8
0	7475	11950.957763996692	9
0	7477	11957.597969102791	8
0	7480	11958.585045809616	7
0	7483	11964.14705389988	6
0	7485	11979.603791127097	5
0	7487	11984.362444185207	4
0	7489	11985.648785445576	5
0	7492	11986.224709424245	4
0	7494	11990.529398808331	3
0	7496	11996.135365394926	4
0	7499	11996.679844551718	5
0	7502	11998.655514310559	4
0	7504	12002.299640404752	3
0	7506	12021.132199114098	4
0	7509	12030.343433887429	3
0	7511	12033.768477142668	2
0	7513	12044.08668309251	3
0	7516	12051.016762065049	4
0	7519	12055.394329234754	5
0	7522	12056.12742760065	4
0	7524	12060.537234528861	3
0	7526	12062.388514716578	4
0	7529	12062.86791506952	3
0	7531	12069.388544941973	4
0	7534	12074.193784844749	3
0	7536	12076.6991538808	4
0	7539	12081.170019776704	3
0	7541	12081.558611261334	4
0	7544	12091.298854016361	3
0	7546	12096.782682529828	2
0	7548	12106.772435579333	3
0	7551	12111.201815563613	2
0	7553	12112.335167609795	1
0	7555	12126.136885799539	2
0	7558	12144.678135775404	3
0	7561	12148.497916309067	4
0	7564	12149.118391568012	3
0	7566	12150.725684797121	4
0	7569	12157.078054469203	5
0	7572	12157.237367554614	4
0	7574	12157.499640732195	3
0	7576	12171.910578487352	4
0	7579	12174.981507206095	5
0	7582	12177.375480762218	6
0	7585	12178.836584427204	7
0	7588	12180.657427373419	8
0	7590	12182.152005199462	9
0	7592	12182.921904794365	8
0	7595	12184.735414146557	7
0	7598	12189.078305066968	6
0	7600	12190.252324819342	7
0	7603	12190.339282214418	8
0	7605	12190.953398284752	7
0	7608	12216.577342515644	8
0	7610	12217.00232347255	7
0	7613	12224.173827691771	8
0	7615	12224.900179178246	7
0	7618	12228.813381940475	8
0	7620	12229.744512224604	9
0	7622	12229.937324345245	8
0	7625	12234.346640631145	9
0	7627	12241.548834972615	10
0	7629	12241.990538222823	9
0	7632	12251.447497729083	8
0	7635	12251.72688278264	9
0	7637	12252.054043165375	10
0	7639	12261.128486913389	9
0	7642	12263.747148117783	8
0	7645	12266.242633448638	9
0	7647	12269.178788825141	8
0	7650	12271.558393317495	7
0	7653	12273.867920163076	8
0	7655	12291.212536198228	9
0	7657	12294.757680060662	8
0	7660	12297.192051268296	9
0	7662	12299.915523507219	10
0	7664	12302.195687855783	9
0	7667	12305.125595395407	8
0	7670	12305.731455568414	7
0	7673	12318.367013753983	8
0	7675	12321.972764667206	9
0	7677	12325.96826769256	10
0	7679	12326.715932817458	9
0	7682	12328.602845725188	8
0	7685	12330.228997863114	9
0	7687	12332.020761694041	8
0	7690	12334.08523736205	9
0	7692	12337.333234963773	10
0	7694	12339.962824769463	9
0	7697	12342.66011378919	8
0	7700	12346.126830548491	7
0	7703	12350.678966578346	6
0	7705	12352.576814051661	7
0	7708	12352.869602601078	6
0	7710	12354.580548154478	5
0	7712	12357.022889184919	4
0	7714	12373.457843197717	5
0	7717	12373.587143717174	6
0	7720	12375.185085972282	5
0	7722	12377.148977676936	6
0	7725	12385.619812510177	5
0	7727	12386.040556253342	6
0	7730	12389.381738523686	5
0	7732	12390.389739058418	4
0	7734	12391.266570329241	3
0	7736	12396.15475573517	4
0	7739	12409.539593292187	5
0	7742	12412.015361658617	4
0	7744	12414.188369643358	5
0	7747	12419.680140557754	4
0	7749	12422.414413827888	5
0	7752	12422.807719599946	4
0	7754	12424.406742229372	5
0	7757	12426.287520719832	4
0	7759	12429.935198927766	5
0	7762	12432.281199355653	6
0	7765	12432.499082017298	5
0	7767	12438.407114211286	6
0	7770	12438.839717567377	5
0	7772	12445.871491590395	6
0	7775	12448.527734516944	5
0	7777	12454.593383920336	4
0	7779	12458.41785718341	3
0	7781	12461.731424552138	2
0	7783	12464.317885322481	1
0	7785	12466.970898745048	2
0	7788	12468.898952476953	3
0	7791	12472.815673996237	2
0	7793	12476.339140670704	3
0	7796	12477.023500098587	4
0	7799	12486.495250276404	3
0	7801	12497.580861285892	2
0	7803	12507.535155307047	3
0	7806	12516.253150807947	4
0	7809	12519.763541944768	3
0	7811	12520.133686352681	4
0	7814	12526.837157696388	3
0	7816	12528.139165157256	2
0	7818	12536.407616902163	3
0	7821	12540.629571587019	4
0	7824	12542.107890548919	3
0	7826	12544.415565964983	4
0	7829	12554.376304570432	5
0	7832	12563.824308590788	6
0	7835	12565.27640764584	5
0	7837	12568.541973056389	4
0	7839	12569.333425142135	5
0	7842	12570.428868534829	6
0	7845	12574.365616656255	5
0	7847	12574.901733115749	4
0	7849	12575.43383235139	3
0	7851	12576.909417511352	2
0	7853	12577.452639125612	3
0	7856	12590.925331829421	2
0	7858	12593.055742071243	1
0	7860	12600.055930558243	0
0	7862	12606.126904993441	1
0	7865	12607.159584925018	2
0	7868	12610.178471159298	1
0	7870	12623.362047479631	2
0	7873	12649.81926741844	1
0	7875	12654.809046878127	2
0	7878	12660.735726898715	3
0	7881	12662.343316676962	4
0	7884	12664.858324980306	3
0	7886	12671.556403921755	4
0	7889	12673.275437536198	5
0	7892	12673.757519787257	4
0	7894	12675.525493874924	5
0	7897	12679.528865009904	4
0	7899	12686.562130826856	3
0	7901	12692.843332171453	4
0	7904	12694.355686234624	5
0	7907	12696.827963656046	6
0	7910	12703.127266524482	7
0	7913	12704.807213582814	6
0	7915	12706.447326775781	5
0	7917	12707.466373794356	4
0	7919	12708.780523305385	3
0	7921	12712.545195019523	2
0	7923	12713.774222479486	3
0	7926	12717.683365917221	4
0	7929	12726.378914095278	3
0	7931	12726.414486516366	2
0	7933	12731.927327139849	1
0	7935	12732.793858411757	2
0	7938	12742.712992905868	3
0	7941	12744.60431923291	2
0	7943	12745.633148685356	3
0	7946	12752.748334738685	4
0	7949	12755.821619559264	5
0	7952	12757.21144215842	6
0	7955	12759.767036508894	5
0	7957	12760.688787656452	6
0	7960	12771.431847540302	7
0	7963	12775.679718200572	8
0	7965	12778.205719090531	7
0	7968	12780.244902939885	8
[...]
1	7210	11627.218349025427	0
1	7212	11627.360771526809	0
1	7214	11649.663800906637	0
1	7217	11654.313010139973	0
1	7219	11657.40615085694	0
1	7222	11657.408988449948	0
1	7225	11657.581925449916	0
1	7227	11657.634613243319	0
1	7230	11665.489642957284	0
1	7233	11671.296595577199	1
1	7235	11671.443131829625	0
1	7238	11671.858836065466	0
1	7240	11673.05361820789	0
1	7243	11674.141486001553	1
1	7245	11682.309284447719	0
1	7248	11687.722847647782	1
1	7250	11689.457362529722	0
1	7253	11691.537895479155	0
1	7255	11692.864264028234	0
1	7258	11692.956484841251	0
1	7260	11693.353456887707	0
1	7263	11693.929720518566	0
1	7265	11697.028621952367	0
1	7268	11708.855297740867	1
1	7270	11713.718718643796	0
1	7273	11716.390609179339	1
1	7275	11717.88407554575	0
1	7278	11719.197951131024	0
1	7280	11720.880410879777	0
1	7282	11721.301774517368	0
1	7284	11725.588069603619	0
1	7287	11726.066528012947	0
1	7289	11731.080338601188	0
1	7291	11734.398523786088	0
1	7294	11741.269567366112	0
1	7296	11741.370030965577	0
1	7299	11751.120459188771	0
1	7302	11752.676926930863	0
1	7305	11759.55555540607	0
1	7307	11762.509066911167	0
1	7310	11762.558928102518	0
1	7312	11763.320347831671	0
1	7315	11765.716781289229	0
1	7318	11770.558296299012	1
1	7320	11771.93860519855	0
1	7323	11773.803293348022	1
1	7325	11775.164617908187	0
1	7328	11778.706091277527	0
1	7330	11782.453113044453	0
1	7333	11783.71656863698	1
1	7335	11784.286038250453	2
1	7337	11784.462788050193	1
1	7340	11787.998366288074	0
1	7343	11793.254129130562	0
1	7345	11796.007229651155	0
1	7347	11796.95322381076	0
1	7350	11799.569623315533	0
1	7353	11799.673485166869	1
1	7355	11800.542934812894	0
1	7358	11806.836348867771	0
1	7360	11809.886899127358	0
1	7362	11811.677193813575	0
1	7365	11813.042923902529	0
1	7368	11813.437694130719	1
1	7370	11813.465159147936	0
1	7373	11817.597234813732	0
1	7375	11824.855208854629	0
1	7377	11825.485869397572	0
1	7380	11826.683212411035	0
1	7382	11831.089851877204	0
1	7384	11836.225371481037	0
1	7386	11844.249593731001	0
1	7389	11844.488176934733	0
1	7392	11844.662975441157	0
1	7394	11846.33539837583	0
1	7397	11849.3390079656	0
1	7400	11849.454291852979	0
1	7402	11849.764019625479	0
1	7405	11850.000939962433	0
1	7407	11850.519395808015	0
1	7410	11854.271020802497	0
1	7412	11858.906869131577	0
1	7414	11864.333803484451	0
1	7417	11868.165361130207	0
1	7420	11868.328342762447	0
1	7422	11872.639961978008	0
1	7424	11877.214429085942	0
1	7427	11878.639284804559	0
1	7430	11883.266774135129	0
1	7433	11885.78957862151	1
1	7435	11886.932527855264	0
1	7438	11888.4516027389	1
1	7440	11892.382237999972	0
1	7443	11896.475249140821	0
1	7445	11903.400339579662	0
1	7448	11905.201373620739	1
1	7450	11906.423356326777	0
1	7453	11909.679131659471	1
1	7455	11911.24108476637	2
1	7457	11919.896580262815	3
1	7459	11922.051428612037	2
1	7462	11925.07331823393	1
1	7465	11928.844327848339	0
1	7468	11930.411287582289	0
1	7470	11933.130484160789	0
1	7473	11944.036062962503	1
1	7475	11950.957763996692	2
1	7477	11957.597969102791	1
1	7480	11958.585045809616	0
1	7483	11964.14705389988	0
1	7485	11979.603791127097	0
1	7487	11984.362444185207	0
1	7489	11985.648785445576	0
1	7492	11986.224709424245	0
1	7494	11990.529398808331	0
1	7496	11996.135365394926	0
1	7499	11996.679844551718	0
1	7502	11998.655514310559	0
1	7504	12002.299640404752	0
1	7506	12021.132199114098	0
1	7509	12030.343433887429	0
1	7511	12033.768477142668	0
1	7513	12044.08668309251	0
1	7516	12051.016762065049	0
1	7519	12055.394329234754	0
1	7522	12056.12742760065	0
1	7524	12060.537234528861	0
1	7526	12062.388514716578	0
1	7529	12062.86791506952	0
1	7531	12069.388544941973	0
1	7534	12074.193784844749	0
1	7536	12076.6991538808	0
1	7539	12081.170019776704	0
1	7541	12081.558611261334	0
1	7544	12091.298854016361	0
1	7546	12096.782682529828	0
1	7548	12106.772435579333	0
1	7551	12111.201815563613	0
1	7553	12112.335167609795	0
1	7555	12126.136885799539	0
1	7558	12144.678135775404	0
1	7561	12148.497916309067	0
1	7564	12149.118391568012	0
1	7566	12150.725684797121	0
1	7569	12157.078054469203	0
1	7572	12157.237367554614	0
1	7574	12157.499640732195	0
1	7576	12171.910578487352	0
1	7579	12174.981507206095	0
1	7582	12177.375480762218	0
1	7585	12178.836584427204	0
1	7588	12180.657427373419	1
1	7590	12182.152005199462	2
1	7592	12182.921904794365	1
1	7595	12184.735414146557	0
1	7598	12189.078305066968	0
1	7600	12190.252324819342	0
1	7603	12190.339282214418	1
1	7605	12190.953398284752	0
1	7608	12216.577342515644	1
1	7610	12217.00232347255	0
1	7613	12224.173827691771	1
1	7615	12224.900179178246	0
1	7618	12228.813381940475	1
1	7620	12229.744512224604	2
1	7622	12229.937324345245	1
1	7625	12234.346640631145	2
1	7627	12241.548834972615	3
1	7629	12241.990538222823	2
1	7632	12251.447497729083	1
1	7635	12251.72688278264	2
1	7637	12252.054043165375	3
1	7639	12261.128486913389	2
1	7642	12263.747148117783	1
1	7645	12266.242633448638	2
1	7647	12269.178788825141	1
1	7650	12271.558393317495	0
1	7653	12273.867920163076	1
1	7655	12291.212536198228	2
1	7657	12294.757680060662	1
1	7660	12297.192051268296	2
1	7662	12299.915523507219	3
1	7664	12302.195687855783	2
1	7667	12305.125595395407	1
1	7670	12305.731455568414	0
1	7673	12318.367013753983	1
1	7675	12321.972764667206	2
1	7677	12325.96826769256	3
1	7679	12326.715932817458	2
1	7682	12328.602845725188	1
1	7685	12330.228997863114	2
1	7687	12332.020761694041	1
1	7690	12334.08523736205	2
1	7692	12337.333234963773	3
1	7694	12339.962824769463	2
1	7697	12342.66011378919	1
1	7700	12346.126830548491	0
1	7703	12350.678966578346	0
1	7705	12352.576814051661	0
1	7708	12352.869602601078	0
1	7710	12354.580548154478	0
1	7712	12357.022889184919	0
1	7714	12373.457843197717	0
1	7717	12373.587143717174	0
1	7720	12375.185085972282	0
1	7722	12377.148977676936	0
1	7725	12385.619812510177	0
1	7727	12386.040556253342	0
1	7730	12389.381738523686	0
1	7732	12390.389739058418	0
1	7734	12391.266570329241	0
1	7736	12396.15475573517	0
1	7739	12409.539593292187	0
1	7742	12412.015361658617	0
1	7744	12414.188369643358	0
1	7747	12419.680140557754	0
1	7749	12422.414413827888	0
1	7752	12422.807719599946	0
1	7754	12424.406742229372	0
1	7757	12426.287520719832	0
1	7759	12429.935198927766	0
1	7762	12432.281199355653	0
1	7765	12432.499082017298	0
1	7767	12438.407114211286	0
1	7770	12438.839717567377	0
1	7772	12445.871491590395	0
1	7775	12448.527734516944	0
1	7777	12454.593383920336	0
1	7779	12458.41785718341	0
1	7781	12461.731424552138	0
1	7783	12464.317885322481	0
1	7785	12466.970898745048	0
1	7788	12468.898952476953	0
1	7791	12472.815673996237	0
1	7793	12476.339140670704	0
1	7796	12477.023500098587	0
1	7799	12486.495250276404	0
1	7801	12497.580861285892	0
1	7803	12507.535155307047	0
1	7806	12516.253150807947	0
1	7809	12519.763541944768	0
1	7811	12520.133686352681	0
1	7814	12526.837157696388	0
1	7816	12528.139165157256	0
1	7818	12536.407616902163	0
1	7821	12540.629571587019	0
1	7824	12542.107890548919	0
1	7826	12544.415565964983	0
1	7829	12554.376304570432	0
1	7832	12563.824308590788	0
1	7835	12565.27640764584	0
1	7837	12568.541973056389	0
1	7839	12569.333425142135	0
1	7842	12570.428868534829	0
1	7845	12574.365616656255	0
1	7847	12574.901733115749	0
1	7849	12575.43383235139	0
1	7851	12576.909417511352	0
1	7853	12577.452639125612	0
1	7856	12590.925331829421	0
1	7858	12593.055742071243	0
1	7860	12600.055930558243	0
1	7862	12606.126904993441	0
1	7865	12607.159584925018	0
1	7868	12610.178471159298	0
1	7870	12623.362047479631	0
1	7873	12649.81926741844	0
1	7875	12654.809046878127	0
1	7878	12660.735726898715	0
1	7881	12662.343316676962	0
1	7884	12664.858324980306	0
1	7886	12671.556403921755	0
1	7889	12673.275437536198	0
1	7892	12673.757519787257	0
1	7894	12675.525493874924	0
1	7897	12679.528865009904	0
1	7899	12686.562130826856	0
1	7901	12692.843332171453	0
1	7904	12694.355686234624	0
1	7907	12696.827963656046	0
1	7910	12703.127266524482	0
1	7913	12704.807213582814	0
1	7915	12706.447326775781	0
1	7917	12707.466373794356	0
1	7919	12708.780523305385	0
1	7921	12712.545195019523	0
1	7923	12713.774222479486	0
1	7926	12717.683365917221	0
1	7929	12726.378914095278	0
1	7931	12726.414486516366	0
1	7933	12731.927327139849	0
1	7935	12732.793858411757	0
1	7938	12742.712992905868	0
1	7941	12744.60431923291	0
1	7943	12745.633148685356	0
1	7946	12752.748334738685	0
1	7949	12755.821619559264	0
1	7952	12757.21144215842	0
1	7955	12759.767036508894	0
1	7957	12760.688787656452	0
1	7960	12771.431847540302	0
1	7963	12775.679718200572	1
1	7965	12778.205719090531	0
1	7968	12780.244902939885	1
1	7970	12780.355198792646	2
1	7972	12781.88630410334	1
1	7975	12783.47887161184	2
1	7977	12783.990346078976	1
1	7980	12785.151077034086	0
1	7983	12789.26663193046	0
1	7985	12789.666872537122	0
1	7987	12789.803877030587	0
1	7990	12790.30622823437	0
1	7993	12793.20535578964	1
1	7995	12796.806188239106	0
1	7998	12799.45552735679	0
1	8000	12811.141981143464	0
1	8003	12811.976560888884	0
1	8005	12812.297795475708	0
1	8007	12812.972224948021	0
1	8010	12819.176155434126	0
1	8012	12819.527966273271	0
1	8015	12824.474103047212	0
1	8017	12825.373363536963	0
1	8019	12829.689120199039	0
1	8022	12837.070474832105	0
1	8025	12839.03274434777	0
1	8027	12842.09737074983	0
1	8030	12842.130491639687	0
1	8032	12844.133053522732	0
1	8034	12844.330209428438	0
1	8037	12849.333351799876	0
1	8040	12853.435782996284	0
1	8043	12856.809397120083	1
1	8045	12857.828701181173	0
1	8048	12862.047940766955	1
1	8050	12864.868205559673	0
1	8053	12865.558155444926	0
1	8055	12868.887136398555	0
1	8057	12871.029856780541	0
1	8060	12872.660890611069	0
1	8063	12876.407583563407	0
1	8065	12879.364012226127	0
1	8068	12880.037017438655	0
1	8070	12881.316132757251	0
1	8072	12893.504565798728	0
1	8074	12893.603402739931	0
1	8076	12899.423909575226	0
1	8078	12902.873948329027	0
1	8081	12903.631450001595	0
1	8084	12906.228504753416	0
1	8087	12910.622726100545	0
1	8089	12911.023462217067	0
1	8092	12925.86726911142	0
1	8095	12927.928401495117	0
1	8097	12930.286677199823	0
1	8100	12945.78191927055	0
1	8102	12955.58158440555	0
1	8105	12956.132751760334	0
1	8107	12961.071554969736	0
1	8109	12965.069781291262	0
1	8112	12973.812553214646	0
1	8114	12975.070132514328	0
1	8116	12979.129596171988	0
1	8119	12981.733901552922	0
1	8121	12983.008803192526	0
1	8123	12987.177718418013	0
1	8126	12996.262380898037	0
1	8129	12997.965325437749	0
1	8132	13002.422197313018	0
1	8134	13004.467386826951	0
1	8136	13006.054532605438	0
1	8139	13007.542305627438	0
1	8142	13012.132857017591	0
1	8145	13012.629228613523	0
1	8147	13020.174984321006	0
1	8150	13021.754343178231	0
1	8153	13027.007158211719	0
1	8155	13027.309875514004	0
1	8157	13028.828717962533	0
1	8160	13030.308889392978	0
1	8163	13033.354531637496	0
1	8165	13034.523140155122	0
1	8168	13043.874167899787	1
1	8170	13044.501389610668	0
1	8173	13044.558515773007	0
1	8175	13051.825108624806	0
1	8178	13052.537366411809	0
1	8180	13053.665039003633	0
1	8182	13055.119063550116	0
1	8185	13057.472576575213	0
1	8188	13060.191948791897	0
1	8190	13061.414938975702	0
1	8192	13067.973820589316	0
1	8194	13071.537629034394	0
1	8197	13074.837849935647	0
1	8199	13075.882114679139	0
1	8201	13077.708848816764	0
1	8204	13078.557331655642	0
1	8206	13081.991484518958	0
1	8208	13083.70382656882	0
1	8211	13087.900972562701	0
1	8214	13096.559084814104	0
1	8216	13098.60999725755	0
1	8219	13100.753747853099	0
1	8221	13107.252337057488	0
1	8224	13107.302181094517	0
1	8226	13111.481870136164	0
1	8228	13121.225197937889	0
1	8230	13125.155626137612	0
1	8232	13128.521833465266	0
1	8235	13139.903863559223	0
1	8238	13141.060559917067	0
1	8241	13152.179256899572	0
1	8244	13165.377644127317	0
1	8247	13176.916113056334	0
1	8249	13182.58392625833	0
1	8252	13187.804533780265	0
1	8255	13189.190200244025	0
1	8258	13194.177514727127	1
1	8260	13195.088302520972	2
1	8262	13200.793015154014	1
1	8265	13204.082173797458	2
1	8267	13207.773382874812	3
1	8269	13210.950993147635	4
1	8271	13213.363525008934	5
1	8273	13215.130047913972	6
1	8275	13218.843968333503	7
1	8277	13223.175242009207	8
1	8279	13228.321814420303	7
1	8282	13230.395448349563	8
1	8284	13231.895529184621	9
1	8286	13234.022624508556	8
1	8289	13235.859757091916	7
1	8292	13236.217836630431	8
1	8294	13237.969123303585	9
1	8296	13239.30149217756	8
1	8299	13250.0827419383	7
1	8302	13251.833041851804	8
1	8304	13252.159859732674	9
1	8306	13252.48611032852	10
1	8308	13255.198623517185	9
1	8311	13256.316728622997	8
1	8314	13260.776172295399	7
1	8317	13261.509376669823	8
1	8319	13267.845094126062	7
1	8322	13269.970915517788	8
1	8324	13272.343318080262	7
1	8327	13274.486482775035	8
1	8329	13275.110547327684	7
1	8332	13278.240542078079	6
1	8335	13279.150951487179	7
1	8337	13282.187975759417	6
1	8340	13284.493639512569	5
1	8343	13286.524645950667	4
1	8346	13286.586358423455	3
1	8349	13291.010935961996	2
1	8352	13299.155006620527	3
1	8354	13301.91029000642	4
1	8356	13306.23109368547	3
1	8359	13306.89129669331	2
1	8362	13309.081416714967	1
1	8365	13309.560392839978	2
1	8367	13311.867032135321	1
1	8370	13313.872611205209	2
1	8372	13321.198354672278	1
1	8375	13328.332137583715	0
1	8378	13330.919176759246	0
1	8380	13335.302280857651	0
1	8383	13337.054367978189	0
1	8385	13340.309069566445	0
1	8387	13341.537320269157	0
1	8389	13341.984527680736	0
1	8392	13343.902616471984	0
1	8394	13346.181579667879	0
1	8396	13354.945468820305	0
1	8399	13366.109679055589	0
1	8401	13368.556088643027	0
1	8404	13369.432235453832	0
1	8407	13370.445463669258	0
1	8409	13377.411503989701	0
1	8412	13389.719196435378	0
1	8414	13396.466507741305	0
1	8416	13398.356219845587	0
1	8419	13402.373863794303	0
1	8422	13403.612617814233	0
1	8424	13412.551116360066	0
1	8427	13414.140072660667	0
1	8430	13428.809148756629	0
1	8433	13430.681174345327	1
1	8435	13432.195972493864	2
1	8437	13437.057656774486	3
1	8439	13438.471243615362	2
1	8442	13446.516275224558	3
1	8444	13447.818192708022	2
1	8447	13454.208242343459	1
1	8450	13463.41267110498	2
1	8452	13464.195757870418	3
1	8454	13468.433520110537	4
1	8456	13468.755373456079	3
1	8459	13469.296943830152	2
1	8462	13477.056928143722	1
1	8465	13479.320743791925	0
1	8468	13481.408674456857	1
1	8470	13483.162164520865	0
1	8473	13485.932670493585	0
1	8475	13488.755290679436	0
1	8478	13489.55588569056	0
1	8480	13493.05346720494	0
1	8483	13494.627745313498	0
1	8485	13498.3620316353	0
1	8488	13499.842002226789	0
1	8490	13500.508739006925	0
1	8493	13501.390386973247	0
1	8495	13507.677219775844	0
1	8497	13510.919288211272	0
1	8500	13514.536263823779	0
1	8502	13521.380922170951	0
1	8505	13524.486640605749	0
1	8507	13525.846741258841	0
1	8510	13526.516911755602	0
1	8513	13528.164727061791	1
1	8515	13537.570557822339	2
1	8517	13537.674669497703	1
1	8520	13544.46994941163	2
1	8522	13546.640024783114	1
1	8525	13551.838365431645	2
1	8527	13553.445804388924	1
1	8530	13555.009114000483	2
1	8532	13560.260585476924	1
1	8535	13565.229317976872	0
1	8538	13567.877888151291	1
1	8540	13570.277787207766	2
1	8542	13573.28766306137	1
1	8545	13580.928245942431	0
1	8548	13583.930161183598	1
1	8550	13586.281022879082	0
1	8553	13589.193825070597	0
1	8555	13590.737034932105	0
1	8557	13593.501755208209	0
1	8559	13597.982315012594	0
1	8561	13607.664519845298	0
1	8564	13608.90230540743	0
1	8567	13614.540884042871	0
1	8569	13617.078991784499	0
1	8571	13617.571973599807	0
1	8574	13621.507793006424	0
1	8576	13622.098110010597	0
1	8578	13628.679521499916	0
1	8581	13633.062022977429	0
1	8583	13635.515530887475	0
1	8585	13640.571000222722	0
1	8588	13648.70071989167	0
1	8590	13658.912080604743	0
1	8593	13663.237225865512	0
1	8596	13666.537758531968	0
1	8599	13675.538870946914	0
1	8601	13679.33594157129	0
1	8604	13682.309323773878	0
1	8606	13687.17260718157	0
1	8608	13688.770283073934	0
1	8611	13689.316337677858	0
1	8613	13695.36128815888	0
1	8616	13705.362572195609	0
1	8619	13707.802981569443	0
1	8621	13709.245971507175	0
1	8623	13714.512341334492	0
1	8626	13719.08328600617	0
1	8629	13732.59618093466	0
1	8631	13735.02366427044	0
1	8634	13737.8609072447	0
1	8637	13737.967045446481	0
1	8639	13742.412961797102	0
1	8642	13752.894358131431	0
1	8644	13754.65788613128	0
1	8646	13755.007173227438	0
1	8649	13755.820617676406	0
1	8651	13764.350792877758	0
1	8653	13786.36493079701	0
1	8656	13803.96595321121	0
1	8659	13814.919262308197	0
1	8661	13818.987738752463	0
1	8664	13820.300225916068	0
1	8666	13820.50282164245	0
1	8668	13828.286975782496	0
1	8671	13831.543706906287	0
1	8674	13837.107591856982	0
1	8677	13841.354935182437	0
1	8680	13847.168089921305	0
1	8682	13847.700527126297	0
1	8685	13848.023817935354	0
1	8687	13856.765240928489	0
1	8689	13857.165202449076	0
1	8691	13861.485012323862	0
1	8693	13865.014669939354	0
1	8695	13871.997315271268	0
1	8698	13873.778037331928	0
1	8700	13898.343956345898	0
1	8703	13905.454430947534	0
1	8706	13906.431946384632	0
1	8708	13926.858896055236	0
1	8711	13932.841827358154	0
1	8714	13935.288182559047	0
1	8717	13936.194760942306	0
1	8720	13937.109779195524	0
1	8723	13940.08712592398	0
1	8725	13943.267493947946	0
1	8728	13945.673913162555	1
1	8730	13948.063196580921	0
1	8733	13950.808645818635	1
1	8735	13954.640226570198	2
1	8737	13955.332939808469	3
1	8739	13961.778456000788	4
1	8741	13962.622419251888	3
1	8744	13967.052887802791	2
1	8747	13967.64215067458	1
1	8750	13967.923800382261	2
1	8752	13976.754251018749	3
1	8754	13978.738694156349	4
1	8756	13980.540893450019	5
1	8758	13987.84524243978	4
1	8761	13999.213859995883	5
1	8763	14000.030303644627	4
1	8766	14002.038973432261	5
1	8768	14003.590821863407	6
1	8770	14004.943080966032	7
1	8772	14005.419847977428	8
1	8774	14006.469613537868	7
1	8777	14006.976794033588	6
1	8780	14008.552906194375	7
1	8782	14017.667281305371	8
1	8784	14018.098642614912	7
1	8787	14020.715026975337	6
1	8790	14022.717474329891	5
1	8793	14036.434725899334	6
1	8795	14037.202769256839	7
1	8797	14053.941924332742	6
1	8800	14059.185585754135	5
1	8803	14064.634227098601	4
1	8806	14068.006509741367	5
1	8808	14071.262183499278	6
1	8810	14074.049628736872	7
1	8812	14076.731808104003	6
1	8815	14081.83228364467	7
1	8817	14084.709126390206	8
1	8819	14086.949355622226	7
1	8822	14096.712959258559	6
1	8825	14098.788603330671	7
1	8827	14101.782132821175	6
1	8830	14102.481629968263	5
1	8833	14103.411101473345	4
1	8836	14110.752997520696	5
1	8838	14115.268473545151	6
1	8840	14120.000921844133	5
1	8843	14126.692261264839	6
1	8845	14127.620073178195	5
1	8848	14128.923073691713	6
1	8850	14131.294443468537	5
1	8853	14134.854966362584	6
1	8855	14142.167192288327	7
1	8857	14143.086288514356	8
1	8859	14155.739396388782	7
1	8862	14156.69545803372	6
1	8865	14161.876023706939	5
1	8868	14164.670154113135	6
1	8870	14165.393144977769	7
1	8872	14175.056395590445	6
1	8875	14178.625951570301	5
1	8878	14179.527781065085	4
1	8881	14188.79586195986	3
1	8884	14191.12765312422	4
1	8886	14194.426301591157	5
1	8888	14199.322642108183	4
1	8891	14205.977161671816	3
1	8894	14207.29275677584	2
1	8897	14212.432860896294	1
1	8900	14213.7974881377	0
1	8903	14215.595191091249	0
1	8905	14216.245908381943	0
1	8907	14229.097261801934	0
1	8909	14234.173537985953	0
1	8912	14236.313152868297	0
1	8914	14238.488960302412	0
1	8916	14239.751099824143	0
1	8918	14240.665446110097	0
1	8921	14244.27181144478	0
1	8924	14251.821452086416	0
1	8927	14254.875497483927	0
1	8930	14255.841103452843	0
1	8932	14257.606507621478	0
1	8934	14262.908061557948	0
1	8936	14281.1374648264	0
1	8938	14295.112379318438	0
1	8941	14300.227538382881	0
1	8944	14306.875244722289	0
1	8947	14308.166594574616	0
1	8950	14314.051515039984	0
1	8952	14318.020724961662	0
1	8955	14324.59382836832	0
1	8958	14326.807639177005	1
1	8960	14329.490340331061	2
1	8962	14330.352200963279	1
1	8965	14335.359034501754	0
1	8968	14337.025617790858	0
1	8970	14340.830864515061	0
1	8973	14344.073454198204	1
1	8975	14352.180865411888	0
1	8978	14353.041218450157	1
1	8980	14354.588507964845	0
1	8983	14358.222659845383	0
1	8985	14362.460646661201	0
1	8988	14363.720385275031	0
1	8990	14374.833048133481	0
1	8992	14383.689180655476	0
1	8994	14385.205678659234	0
1	8997	14393.52101379629	0
1	9000	14396.129794732922	0

