version 2
run General-10-20191211-23:49:40-6375
attr configname General
attr datetime 20191211-23:49:40
attr experiment General
attr inifile omnetpp.ini
attr iterationvars ""
attr iterationvarsf ""
attr measurement ""
attr network Carrefour
attr processid 6375
attr repetition 10
attr replication #10
attr resultdir results
attr runnumber 10
attr seedset 10
param **.tillsNumber 7
param **.delta 0s
param **.policy 1
param **.capacity 0.3
param **.meanInterArrivalTime 8s
param **.meanItemsInACart 12
param **.interArrivalDistribution 0
param **.itemsInCartDistribution 0

vector 0 Carrefour.decider stats_numCustomers:vector ETV
attr "" ""
attr source numCustomers
vector 1 Carrefour.decider stats_numCustomersQueue:vector ETV
attr "" ""
attr source numCustomersQueue
0	729	1203.206142605877	5
0	732	1204.510257776009	4
0	734	1213.282623560505	5
0	737	1213.979216298239	4
0	739	1216.664550986566	5
0	742	1217.517952093015	6
0	745	1219.201175616293	5
0	747	1227.232845594603	6
0	750	1232.470894456697	5
0	752	1239.994813518751	4
0	754	1244.055790351795	3
0	756	1254.346457705474	4
0	759	1260.341448907304	5
0	762	1262.091457552874	6
0	765	1264.808952147961	5
0	767	1270.705879289166	6
0	770	1271.915645801624	5
0	772	1278.166267488819	4
0	774	1278.505780790118	3
0	776	1283.987560167967	4
0	779	1286.486535249655	5
0	782	1289.289268467505	6
0	785	1294.569161944044	5
0	787	1296.776463836949	6
0	790	1297.954038125387	5
0	792	1301.998009505306	4
0	794	1303.212992935676	5
0	797	1303.607837431164	6
0	800	1304.027678675857	5
0	802	1308.724488225087	4
0	804	1316.086074758564	5
0	807	1323.864895971962	4
0	809	1325.598764996682	5
0	812	1327.313496330078	4
0	814	1333.908249796915	5
0	817	1336.753332309234	6
0	820	1341.872604814716	7
0	823	1343.3212847031	8
0	825	1344.729966802599	7
0	828	1346.738654697046	6
0	830	1352.613857070172	5
0	832	1356.212732624214	4
0	834	1358.799545963222	5
0	837	1361.141324582881	4
0	839	1362.03030060097	5
0	842	1368.018559706233	6
0	845	1369.465343189014	7
0	848	1372.635416060132	8
0	850	1375.030310693379	7
0	853	1379.226770350322	6
0	855	1381.105298434372	5
0	857	1392.322248236356	6
0	860	1392.618395650229	5
0	862	1396.64545574382	4
0	864	1403.497481474387	5
0	867	1403.819437400842	4
0	869	1405.152764245778	3
0	871	1406.170361691396	4
0	874	1407.503177155277	3
0	876	1432.185201884072	2
0	878	1433.124034657338	1
0	880	1437.644109263051	0
0	882	1442.850905262714	1
0	885	1443.761696930491	2
0	888	1451.156494666805	3
0	891	1452.151951313793	4
0	894	1462.481576092092	3
0	896	1464.000702231802	4
0	899	1473.343766268857	3
0	901	1475.269794047418	4
0	904	1476.088085054429	3
0	906	1486.304775681991	2
0	908	1492.281972381387	3
0	911	1493.228533502407	2
0	913	1506.88753702029	3
0	916	1508.781819597542	4
0	919	1509.071290274458	5
0	922	1523.270400842537	4
0	924	1540.258322459388	5
0	927	1541.294125340133	6
0	930	1550.308849029605	5
0	932	1550.483600699837	4
0	934	1551.069495630996	3
0	936	1557.162014596822	4
0	939	1560.00136022309	3
0	941	1574.893864870892	4
0	944	1585.263849570316	3
0	946	1587.01934741917	4
0	949	1589.920859708924	3
0	951	1592.809720105811	4
0	954	1596.770667728358	5
0	957	1617.404795050611	4
0	959	1617.43107188978	5
0	962	1621.006119252457	4
0	964	1622.372488202232	5
0	967	1623.801844589529	4
0	969	1623.967561789513	3
0	971	1629.336196952907	4
0	974	1630.889630712847	5
0	977	1638.261640957078	4
0	979	1642.761113538909	5
0	982	1647.776298381774	6
0	985	1651.976201948594	5
0	987	1652.171123982716	6
0	990	1656.768009423368	7
0	993	1657.658794109476	6
0	995	1659.34856715108	5
0	997	1660.063322200314	4
0	999	1670.73303775139	5
0	1002	1670.882822230343	4
0	1004	1675.644119317789	5
0	1007	1677.745424412933	4
0	1009	1679.538447726372	5
0	1012	1685.09550599335	4
0	1014	1687.621041455248	5
0	1017	1689.556274904186	4
0	1019	1689.669766433864	3
0	1021	1691.120973113828	4
0	1024	1703.682711520074	3
0	1026	1720.879374203678	2
0	1028	1722.189857953277	3
0	1031	1725.289349051173	2
0	1033	1726.659886538914	3
0	1036	1727.388384028855	2
0	1038	1736.026348092555	3
0	1041	1736.072486241312	2
0	1043	1740.047424655899	3
0	1046	1740.715088604286	4
0	1049	1743.343884435558	3
0	1051	1755.610641230799	4
0	1054	1757.744949409098	5
0	1057	1761.489937349405	6
0	1060	1764.282172548564	5
0	1062	1764.791773665885	6
0	1065	1768.508158428847	7
0	1068	1772.484796734812	8
0	1070	1773.165388532941	7
0	1073	1775.518922424821	6
0	1075	1776.786849720668	7
0	1078	1778.789320574157	6
0	1080	1779.706212091076	5
0	1082	1789.717443871108	6
0	1085	1790.555521609828	5
0	1087	1794.138190573033	6
0	1090	1794.568954350941	7
0	1093	1802.947695854446	6
0	1095	1803.26570171622	7
0	1098	1804.220943408695	8
0	1100	1805.377191723032	7
0	1103	1805.904498864041	8
0	1105	1808.776898510268	7
0	1108	1812.569657371697	8
0	1110	1814.493408051334	7
0	1113	1815.388293459133	6
0	1115	1822.824516680953	7
0	1118	1823.498668033109	8
0	1120	1825.839270610171	9
0	1122	1830.846354601579	10
0	1124	1832.664848764852	9
0	1127	1847.552015039135	8
0	1130	1857.150905711151	9
0	1132	1857.52016147563	8
0	1135	1860.958333129418	7
0	1138	1861.588562593824	6
0	1140	1866.194466677515	7
0	1143	1867.333071977861	8
0	1145	1867.39346736734	9
0	1147	1879.570059505806	8
0	1150	1880.545565300389	9
0	1152	1884.344712820057	8
0	1155	1884.428821327635	7
0	1158	1885.614983462483	6
0	1160	1889.62609436972	7
0	1163	1893.134077598709	8
0	1165	1895.395386751034	7
0	1168	1896.887510764076	6
0	1170	1906.090680645489	7
0	1173	1906.798168558382	8
0	1175	1908.891435905015	7
0	1178	1918.949987386291	6
0	1180	1934.329245301129	5
0	1182	1935.434376462336	6
0	1185	1935.534814958242	5
0	1187	1940.671456129476	4
0	1189	1945.943748393874	5
0	1192	1951.579935319472	4
0	1194	1952.131408751502	3
0	1196	1956.967798293129	2
0	1198	1961.515010379709	1
0	1200	1961.682910357072	2
0	1203	1962.868976986871	1
0	1205	1984.599401639973	0
0	1207	2007.156764775414	1
0	1210	2011.528620150638	2
0	1213	2011.60573275265	3
0	1216	2029.587481796391	2
0	1218	2030.008243416359	3
0	1221	2032.178235587778	4
0	1224	2035.134618747851	5
0	1227	2040.092674083277	6
0	1230	2043.379252595342	5
0	1232	2049.953330726452	6
0	1235	2053.877007954881	5
0	1237	2055.4306103163	4
0	1239	2061.547505119019	5
0	1242	2066.599677509317	4
0	1244	2068.090914988193	5
0	1247	2075.200083476975	4
0	1249	2079.089338218129	3
0	1251	2080.874527076787	2
0	1253	2094.275478145011	1
0	1255	2096.840433050548	2
0	1258	2099.933005226973	3
0	1261	2100.279050559486	2
0	1263	2119.007881664951	1
0	1265	2119.743466844223	2
0	1268	2120.110541131495	3
0	1271	2127.19366167331	4
0	1274	2129.748724994509	5
0	1277	2134.450023095784	6
0	1280	2147.161177122048	5
0	1282	2149.732259224715	4
0	1284	2154.306705263904	5
0	1287	2157.135795127901	4
0	1289	2158.960638524373	5
0	1292	2164.699086246014	4
0	1294	2165.555430090934	5
0	1297	2175.028565987704	6
0	1300	2176.070626107309	7
0	1303	2178.533484117788	6
0	1305	2181.587160442227	5
0	1307	2181.749607149752	4
0	1309	2183.417873366703	3
0	1311	2186.446380027198	4
0	1314	2188.996487297219	3
0	1316	2193.069121645752	4
0	1319	2201.33446035297	3
0	1321	2203.685261673635	4
0	1324	2207.699463004821	5
0	1327	2211.578394043572	6
0	1330	2217.753909796766	7
0	1333	2236.674733100351	6
0	1335	2239.562154591475	5
0	1337	2241.015082635102	6
0	1340	2243.80577291119	7
0	1343	2249.80631009642	6
0	1345	2251.85304633298	5
0	1347	2256.30761028674	4
0	1349	2256.431971933298	5
0	1352	2262.077506701366	6
0	1355	2264.46275699729	7
0	1358	2265.944009798657	6
0	1360	2267.995660642067	5
0	1362	2272.714930259203	6
0	1365	2280.810450699664	7
0	1368	2283.156630819541	8
0	1370	2284.223240948051	7
0	1373	2284.288898512506	6
0	1375	2289.131174117402	5
0	1377	2290.934855508511	4
0	1379	2298.07852814788	5
0	1382	2298.419397078382	4
0	1384	2311.375586706903	3
0	1386	2312.779607108176	2
0	1388	2315.357946324458	3
0	1391	2315.420390568953	4
0	1394	2327.86284251623	5
0	1397	2328.504165260067	6
0	1400	2329.474947078672	5
0	1402	2338.496562943978	6
0	1405	2339.872259181237	5
0	1407	2343.179399716955	4
0	1409	2344.041828929647	3
0	1411	2350.957966002429	2
0	1413	2371.153285664465	1
0	1415	2374.890767853433	2
0	1418	2376.477568709815	3
0	1421	2382.16827516782	2
0	1423	2384.813384818808	1
0	1425	2388.999597750412	2
0	1428	2405.288175879906	3
0	1431	2415.969560792604	4
0	1434	2420.948247771886	3
0	1436	2421.469510624636	2
0	1438	2427.663638814183	1
0	1440	2445.907195213351	2
0	1443	2455.037445245611	1
0	1445	2462.009827423063	2
0	1448	2470.613966858024	3
0	1451	2472.712723918184	4
0	1454	2472.941415193533	5
0	1457	2473.833358307298	6
0	1460	2475.908054270543	7
0	1463	2485.57025081662	6
0	1465	2486.678372305145	5
0	1467	2486.775472970867	6
0	1470	2489.716611895992	5
0	1472	2492.15277186505	4
0	1474	2496.51729942638	3
0	1476	2502.630606200767	2
0	1478	2506.31158427024	3
0	1481	2510.010885306392	2
0	1483	2510.919701058383	1
0	1485	2511.468823052325	2
0	1488	2525.954921761969	3
0	1491	2528.56350058085	2
0	1493	2529.652068473565	1
0	1495	2537.360288727353	2
0	1498	2542.75607361857	3
0	1501	2548.080222897712	4
0	1504	2548.48016177097	5
0	1507	2551.06314126434	6
0	1510	2554.385830563524	5
0	1512	2556.624562355768	6
0	1515	2558.329430605618	5
0	1517	2559.214176064281	4
0	1519	2559.540720573962	3
0	1521	2560.471893110421	4
0	1524	2561.596804362215	5
0	1527	2570.617872792996	6
0	1530	2574.426929693343	7
0	1533	2574.587204239984	6
0	1535	2584.007196820415	5
0	1537	2585.095665504177	6
0	1540	2585.106115996869	5
0	1542	2590.291015789739	6
0	1545	2594.380440365919	5
0	1547	2601.844578070855	4
0	1549	2603.113037096692	3
0	1551	2603.631124382896	2
0	1553	2610.522059159889	1
0	1555	2618.506377052551	2
0	1558	2621.759772656247	1
0	1560	2629.353977359308	0
0	1562	2648.234300616034	1
0	1565	2657.38391571445	2
0	1568	2657.913943368038	3
0	1571	2663.307793023407	4
0	1574	2668.25866787967	3
0	1576	2674.393967005177	2
0	1578	2695.186066789544	3
0	1581	2696.285493940646	4
0	1584	2700.636616312102	3
0	1586	2700.660944924488	4
0	1589	2703.892928285252	3
0	1591	2706.267653218923	4
0	1594	2712.762575400554	3
0	1596	2713.940523719506	2
0	1598	2714.62847063011	1
0	1600	2717.401132372931	0
0	1602	2734.815830419568	1
0	1605	2739.03240690787	2
0	1608	2742.828729311792	3
0	1611	2744.431006474453	2
0	1613	2745.190115146003	3
0	1616	2745.704765746561	4
0	1619	2753.404825965517	5
0	1622	2756.142292089041	4
0	1624	2758.055855055418	3
0	1626	2760.081414824945	2
0	1628	2764.152625073206	1
0	1630	2766.173404484546	2
0	1633	2779.499491783567	1
0	1635	2784.20486444301	2
0	1638	2797.766475132867	3
0	1641	2801.671866404654	2
0	1643	2806.57545612208	3
0	1646	2809.924990460367	4
0	1649	2815.571490841614	3
0	1651	2816.786398677003	4
0	1654	2817.554569355152	5
0	1657	2825.923953636518	6
0	1660	2827.943697895104	7
0	1663	2828.134010652241	6
0	1665	2828.752040204105	5
0	1667	2840.749764884891	4
0	1669	2851.36615663467	3
0	1671	2851.909019514515	2
0	1673	2853.913009208317	3
0	1676	2864.391423090411	2
0	1678	2870.569799932293	1
0	1680	2875.13790294999	2
0	1683	2891.120456190964	3
0	1686	2897.067397169197	4
0	1689	2902.784974865159	3
0	1691	2905.632264989349	2
0	1693	2908.790844127833	1
0	1695	2909.280268018685	2
0	1698	2909.629778947784	3
0	1701	2912.611090712392	4
0	1704	2916.326397786236	3
0	1706	2923.373318770002	2
0	1708	2927.498021211496	3
0	1711	2930.036708522855	4
0	1714	2931.140553167019	3
0	1716	2936.586383170878	4
0	1719	2961.829938575712	5
0	1722	2963.64192611175	6
0	1725	2969.454609536619	7
0	1728	2970.785373368911	8
0	1730	2972.680700087209	7
0	1733	2975.107759361552	8
0	1735	2978.073922611813	7
0	1738	2978.740621232842	6
0	1740	2990.953374320826	7
0	1743	2992.400686829949	6
0	1745	2994.447676480348	5
0	1747	2996.195281666338	4
0	1749	2999.101358907295	5
0	1752	3007.034387343762	6
0	1755	3014.581565495394	5
0	1757	3016.391663293846	6
0	1760	3017.074742057937	5
0	1762	3028.648804950795	4
0	1764	3028.786064568043	5
0	1767	3029.047148575548	4
0	1769	3040.284402446762	3
0	1771	3040.491001134322	4
0	1774	3043.857801950866	5
0	1777	3048.537234042061	6
0	1780	3055.773219645477	7
0	1783	3059.23784226629	6
0	1785	3068.970996662624	5
0	1787	3079.952210249169	6
0	1790	3085.141572767146	7
0	1793	3091.229406336098	8
0	1795	3103.599690730242	9
0	1797	3106.609598455486	10
0	1799	3114.055406927262	9
0	1802	3115.7811898131	8
0	1805	3120.331359852145	7
0	1808	3122.880318999299	6
0	1810	3124.785350163638	7
0	1813	3126.605796952505	8
0	1815	3139.197127763218	7
0	1818	3144.37919448541	6
0	1820	3145.266458981365	5
0	1822	3152.027885147898	6
0	1825	3155.460137990098	5
0	1827	3164.198882422947	4
0	1829	3185.813101698979	5
0	1832	3194.180318347852	6
0	1835	3199.226795167978	7
0	1838	3199.461018772387	8
0	1840	3209.17129759962	9
0	1842	3212.318316213545	8
0	1845	3212.713788329368	7
0	1848	3214.32857214077	6
0	1850	3217.227217631175	5
0	1852	3229.466640559456	6
0	1855	3230.810242349426	7
0	1858	3232.843588834907	6
0	1860	3235.009823843248	5
0	1862	3235.410656255787	6
0	1865	3237.328488260737	5
0	1867	3245.914989209558	6
0	1870	3247.548619185474	5
0	1872	3249.169266901276	4
0	1874	3259.733994598646	5
0	1877	3268.37827289778	6
0	1880	3288.751109066564	7
0	1883	3290.547274518019	6
0	1885	3290.639775003731	5
0	1887	3299.418559055765	6
0	1890	3308.039875804214	5
0	1892	3315.372962525583	6
0	1895	3316.339535024516	5
0	1897	3322.299643539198	4
0	1899	3333.208812722343	3
0	1901	3334.347525396102	4
0	1904	3342.065856939024	5
0	1907	3345.081836040607	4
0	1909	3346.036240884859	3
0	1911	3352.342724718193	2
0	1913	3354.678382861004	3
0	1916	3356.499524132649	4
0	1919	3358.864683841257	3
0	1921	3360.519338414223	4
0	1924	3365.376489327212	3
0	1926	3376.50197224455	2
0	1928	3384.512331121015	3
0	1931	3385.81253730019	2
0	1933	3391.958347854796	1
0	1935	3404.936690458581	2
0	1938	3406.662175712067	1
0	1940	3413.101491314436	0
0	1942	3417.259350039323	1
0	1945	3417.593807550441	2
0	1948	3421.753732271615	3
0	1951	3421.810379961348	2
0	1953	3426.118197188561	1
0	1955	3434.406062192196	2
0	1958	3435.597940673077	3
0	1961	3438.773363740385	2
0	1963	3450.157812245258	3
0	1966	3462.176804896639	2
0	1968	3469.695564120344	3
0	1971	3475.941372452134	4
0	1974	3480.242612376975	5
0	1977	3488.204682210405	6
0	1980	3489.263426768933	5
0	1982	3493.210342016532	6
0	1985	3500.960116334323	5
0	1987	3505.250602442817	4
0	1989	3521.954219469794	5
0	1992	3522.452497091731	6
0	1995	3526.505138572718	7
0	1998	3531.483314986826	8
0	2000	3535.880586023727	7
0	2003	3536.392193918301	6
0	2005	3537.085328646154	7
0	2008	3542.387596960389	6
0	2010	3542.602625959362	5
0	2012	3548.689926531824	4
0	2014	3549.195456447317	5
0	2017	3551.192991477356	4
0	2019	3554.427664872118	5
0	2022	3566.884435654137	4
0	2024	3569.264885573378	5
0	2027	3571.868244193615	4
0	2029	3572.056957065954	3
0	2031	3575.900916376181	2
0	2033	3579.165639792213	3
0	2036	3579.861635303198	2
0	2038	3583.438420733222	3
0	2041	3583.580866739609	4
0	2044	3584.211003262537	5
0	2047	3584.736748341662	6
0	2050	3585.141531636328	7
0	2053	3586.136731672215	8
0	2055	3588.044104194312	7
0	2058	3589.458774398419	6
0	2060	3591.552158200642	7
0	2063	3593.070610599359	6
0	2065	3602.020888497581	5
0	2067	3605.769578637968	6
0	2070	3606.593431108332	7
0	2073	3609.518439752947	8
0	2075	3614.041183881371	7
0	2078	3620.25955166287	8
0	2080	3624.573575030954	7
0	2083	3627.860271618948	8
0	2085	3630.059016618167	7
0	2088	3630.940698190786	6
0	2090	3645.028450437114	7
0	2093	3651.479900468338	8
0	2095	3652.014251850448	9
0	2097	3652.08025855732	8
0	2100	3657.242910079944	7
0	2103	3659.86271182663	6
0	2105	3660.540395941223	5
0	2107	3663.865614275652	4
0	2109	3664.39133323025	5
0	2112	3666.819247042711	6
0	2115	3666.940668128569	5
0	2117	3680.747897062783	6
0	2120	3680.887533712514	7
0	2123	3684.622590974998	6
0	2125	3693.688493535585	5
0	2127	3694.571000506505	6
0	2130	3700.107708328142	7
0	2133	3700.572845320527	8
0	2135	3703.733780716601	9
0	2137	3703.890443410128	8
0	2140	3705.149310763866	7
0	2143	3709.182948753273	6
0	2145	3717.947024899529	5
0	2147	3721.416378939608	6
0	2150	3730.449290174986	7
0	2153	3738.455929347343	6
0	2155	3753.467265022722	5
0	2157	3754.189907942068	4
0	2159	3754.705401975847	5
0	2162	3754.781033635475	4
0	2164	3754.880092512217	5
0	2167	3756.879270241933	6
0	2170	3760.184026112457	5
0	2172	3760.826928981942	6
0	2175	3765.675207050428	5
0	2177	3771.210959843237	4
0	2179	3772.759209773122	5
0	2182	3782.342061994082	6
0	2185	3783.963721412712	5
0	2187	3786.633449279284	6
0	2190	3788.095615364842	7
0	2193	3793.079738473695	8
0	2195	3796.711208505891	9
0	2197	3805.861684874202	10
0	2199	3807.462522446009	11
0	2201	3809.108151860973	10
0	2204	3809.136684461924	9
0	2207	3810.769615340235	8
0	2210	3811.866720810787	7
0	2213	3819.206346067298	6
0	2215	3819.588340881587	5
0	2217	3823.045667273252	4
0	2219	3829.060612131888	5
0	2222	3830.298338441671	4
0	2224	3831.929406141541	3
0	2226	3832.813167504417	2
0	2228	3839.298544078736	3
0	2231	3839.712794335972	2
0	2233	3851.901441766242	1
0	2235	3854.889539876512	2
0	2238	3857.64381246311	3
0	2241	3861.562149187125	2
0	2243	3871.2419483299	1
0	2245	3883.043163244223	2
0	2248	3885.945354479784	3
0	2251	3891.551293644463	2
0	2253	3893.977668861209	3
0	2256	3896.296939602583	2
0	2258	3898.967486029455	3
0	2261	3899.518950782034	4
0	2264	3919.535144878384	5
0	2267	3919.680425503549	4
0	2269	3927.885340731209	3
0	2271	3935.944057842	4
0	2274	3941.901421552456	3
0	2276	3946.737924147692	2
0	2278	3949.049675598178	3
0	2281	3951.41951768707	2
0	2283	3952.630865390449	3
0	2286	3954.280111248508	4
0	2289	3954.597807523962	3
0	2291	3960.007649931882	2
0	2293	3962.441430145776	3
0	2296	3966.68457553829	4
0	2299	3966.853055980575	3
0	2301	3985.720273833135	4
0	2304	3989.496205645429	3
0	2306	4001.150133443726	4
0	2309	4004.899078876977	3
0	2311	4006.808903747915	4
0	2314	4007.266372609021	5
0	2317	4018.320369285331	4
0	2319	4022.9523507156	5
0	2322	4029.427115552504	4
0	2324	4029.475229673805	3
0	2326	4030.076624534458	2
0	2328	4032.337278212772	1
0	2330	4037.620516678425	2
0	2333	4049.820979082171	1
0	2335	4077.182567143924	0
0	2337	4083.584991961382	1
0	2340	4091.142687306501	2
0	2343	4099.877766196141	1
0	2345	4128.110728879496	0
0	2347	4142.987669930666	1
0	2350	4149.902068637525	2
0	2353	4152.714696953552	3
0	2356	4155.651062753456	2
0	2358	4157.03319330285	3
0	2361	4159.366282582689	4
0	2364	4161.094886577674	5
0	2367	4162.185869800758	4
0	2369	4163.059809049843	5
0	2372	4175.373968082425	6
0	2375	4179.237764641801	5
0	2377	4180.401257966884	6
0	2380	4202.395181686217	5
0	2382	4205.122077701111	4
0	2384	4206.969217039876	5
0	2387	4208.751084457927	4
0	2389	4214.870724782179	3
0	2391	4223.711957143004	4
0	2394	4229.767779872306	5
0	2397	4233.425090218787	4
0	2399	4234.38507988181	5
0	2402	4245.781975063809	6
0	2405	4247.72613161072	7
0	2408	4268.431910144532	8
0	2410	4273.871841935207	9
0	2412	4276.312704047773	10
0	2414	4284.365812417422	9
0	2417	4286.460753627347	8
0	2420	4297.038582442356	9
0	2422	4297.651532249583	10
0	2424	4298.610325882645	11
0	2426	4303.476091770274	10
0	2429	4303.997613719778	9
0	2432	4304.530012397696	8
0	2435	4307.062274793646	7
0	2438	4311.582713033097	8
0	2440	4311.830289636594	7
0	2443	4315.491359000261	8
0	2445	4315.86888857615	9
0	2447	4318.142434188625	8
0	2450	4319.93880459755	9
0	2452	4320.023270777131	8
0	2455	4321.848762440181	7
0	2458	4323.699019767066	8
0	2460	4326.643866763838	9
0	2462	4337.532040913848	10
0	2464	4337.984291622922	11
0	2466	4343.487805959563	10
0	2469	4344.611958765574	9
0	2472	4350.168234096492	8
0	2475	4351.18416827244	9
0	2477	4353.085352513163	10
0	2479	4357.216303382103	9
0	2482	4358.327228487842	10
0	2484	4364.904489057933	9
0	2487	4366.197293498461	8
0	2490	4376.788736307243	7
0	2493	4380.438249129501	8
0	2495	4385.301620278367	9
0	2497	4387.500140549188	10
0	2499	4387.795079486457	9
0	2502	4402.57524433112	8
0	2505	4404.299898046241	7
0	2508	4405.354981647199	6
0	2510	4407.769012591719	7
0	2513	4407.888756592503	8
0	2515	4410.803930413706	9
0	2517	4415.246273667484	10
0	2519	4415.321829795811	11
0	2521	4416.646223677692	10
0	2524	4423.091390808344	11
0	2526	4438.94480992226	12
0	2528	4439.063354227674	11
0	2531	4442.528608642163	12
0	2533	4444.293861460479	13
0	2535	4451.05227970439	12
0	2538	4452.587047066168	11
0	2541	4460.33400091006	10
0	2544	4464.080174211268	9
0	2547	4469.838409748463	10
0	2549	4472.61660018021	11
0	2551	4473.935322715505	12
0	2553	4483.759979411298	11
0	2556	4486.483613361714	10
0	2559	4495.956560060751	9
0	2562	4499.742285856782	10
0	2564	4507.062827505865	9
0	2567	4514.5133739932	8
0	2570	4517.830652676627	7
0	2573	4519.795668973655	6
0	2575	4523.942241640869	7
0	2578	4524.058676388667	6
0	2580	4533.010368949322	7
0	2583	4534.140175086078	6
0	2585	4538.220007645797	7
0	2588	4539.214554957442	6
0	2590	4541.144043589268	7
0	2593	4542.602994402765	6
0	2595	4554.3224977252	7
0	2598	4556.452606052876	8
0	2600	4561.07918111445	7
0	2603	4564.4703142955	8
0	2605	4565.528605774837	7
0	2608	4577.855234958752	8
0	2610	4579.436244667745	9
0	2612	4581.128145140624	8
0	2615	4583.283040335518	7
0	2618	4584.432245232587	6
0	2620	4586.735395717695	5
0	2622	4596.994779961565	4
0	2624	4612.018201142682	3
0	2626	4616.569346864704	4
0	2629	4616.872286716887	5
0	2632	4618.277521684028	4
0	2634	4631.733229605982	5
0	2637	4635.998446885336	4
0	2639	4655.17528152737	5
0	2642	4656.814787937386	4
0	2644	4657.757524105619	3
0	2646	4666.549630209868	4
0	2649	4668.514351741793	3
0	2651	4677.980840012493	2
0	2653	4684.220853473988	3
0	2656	4694.879874926032	2
0	2658	4699.881597639937	3
0	2661	4701.520133199996	2
0	2663	4709.939840322457	1
0	2665	4710.386969377733	2
0	2668	4713.761430033043	1
0	2670	4719.544112965884	2
0	2673	4724.455047230742	3
0	2676	4742.146394237669	2
0	2678	4745.715189121317	3
0	2681	4750.07294889122	4
0	2684	4760.913467044069	5
0	2687	4770.004583118627	4
0	2689	4775.534839376396	5
0	2692	4776.313169255552	4
0	2694	4778.996891054341	3
0	2696	4784.953804675312	4
0	2699	4790.243845892053	5
0	2702	4793.039697024498	6
0	2705	4797.159242422224	7
0	2708	4804.18653545839	6
0	2710	4805.684206309248	7
0	2713	4809.513350682764	8
0	2715	4811.975880613958	7
0	2718	4813.514726934538	8
0	2720	4818.279842403584	7
0	2723	4821.695753786097	6
0	2725	4829.151399171788	5
0	2727	4832.901480088446	4
0	2729	4836.933595737613	5
0	2732	4842.296172888654	4
0	2734	4855.411144778555	5
0	2737	4859.080361206154	4
0	2739	4863.875466946438	5
0	2742	4879.010875326948	6
0	2745	4880.495145538588	7
0	2748	4885.300217523603	6
0	2750	4885.579122939705	5
0	2752	4885.876645612505	6
0	2755	4887.090343036491	5
0	2757	4889.748582439991	4
0	2759	4893.179511223372	3
0	2761	4896.62961677226	4
0	2764	4904.504433741115	3
0	2766	4914.738272530917	4
0	2769	4915.09691086147	3
0	2771	4916.766485937629	2
0	2773	4918.565218683598	3
0	2776	4919.253189755405	4
0	2779	4920.360266431616	3
0	2781	4922.041084468816	2
0	2783	4931.921837343969	1
0	2785	4932.404271876731	2
0	2788	4933.207649578562	3
0	2791	4936.937009340975	4
0	2794	4943.303078873695	5
0	2797	4945.157378485005	6
0	2800	4952.454409324553	7
0	2803	4957.850266334327	8
0	2805	4960.115300755571	7
0	2808	4967.066679312627	6
0	2810	4974.100686342532	5
0	2812	4974.119068360766	4
0	2814	4989.605023205957	5
0	2817	4990.434051195559	4
0	2819	4991.313736999944	5
0	2822	4996.812427209707	6
0	2825	4997.465754429838	5
0	2827	4998.441684609881	6
0	2830	5008.36747465285	7
0	2833	5008.476897823005	6
0	2835	5011.229461606984	7
0	2838	5020.392798362722	8
0	2840	5023.397819530087	7
0	2843	5024.444393667204	6
0	2845	5027.319557098723	5
0	2847	5027.567983979892	6
0	2850	5028.055328303574	5
0	2852	5033.490181778565	4
0	2854	5039.35432768242	5
0	2857	5044.837603654164	6
0	2860	5045.812053070156	5
0	2862	5048.845655341471	4
0	2864	5055.981555701727	5
0	2867	5057.8371856116	4
0	2869	5061.719594396233	3
0	2871	5075.859398078189	4
0	2874	5077.877337804359	5
0	2877	5077.956271563994	4
0	2879	5079.370418514193	3
0	2881	5086.204600517149	4
0	2884	5086.504884085887	3
0	2886	5086.709386909735	4
0	2889	5087.827753713887	5
0	2892	5090.918301139769	6
0	2895	5098.385015069659	5
0	2897	5103.596893270554	4
0	2899	5104.404270533245	5
0	2902	5111.141434028443	6
0	2905	5113.055922871364	7
0	2908	5114.31681124356	8
0	2910	5114.657711401957	9
0	2912	5120.074189548171	8
0	2915	5130.116855386395	7
0	2918	5133.302857814571	6
0	2920	5133.850018592982	7
0	2923	5137.291472345619	8
0	2925	5140.476473651573	7
0	2928	5147.730525463571	6
0	2930	5157.424611340124	5
0	2932	5168.42498698139	4
0	2934	5175.21679017146	3
0	2936	5176.743284878326	4
0	2939	5186.304286077093	5
0	2942	5188.528711811599	4
0	2944	5191.274853457871	3
0	2946	5192.954540429838	2
0	2948	5194.963279955684	3
0	2951	5197.407332813445	4
0	2954	5199.321220253355	3
0	2956	5212.289585141036	2
0	2958	5216.123048377894	3
0	2961	5219.206424965714	4
0	2964	5222.828274857176	5
0	2967	5235.187972567715	4
0	2969	5248.171214879272	5
0	2972	5251.133025107406	4
0	2974	5254.479425804262	3
0	2976	5257.335976212356	4
0	2979	5280.633639313307	3
0	2981	5290.434234689924	4
0	2984	5291.842744664363	5
0	2987	5295.998874390763	4
0	2989	5299.937671320523	5
0	2992	5301.587987272726	6
0	2995	5301.787189800041	5
0	2997	5308.222939458597	4
0	2999	5312.771931224688	5
0	3002	5320.844377569283	4
0	3004	5331.115834698918	3
0	3006	5334.414994199644	4
0	3009	5347.836420581031	3
0	3011	5351.477015584062	2
0	3013	5360.627996952857	3
0	3016	5369.613468476569	2
0	3018	5381.312142878264	3
0	3021	5395.258718071466	4
0	3024	5398.31960021944	3
0	3026	5398.521758993955	2
0	3028	5402.156981997584	1
0	3030	5403.402541058988	2
0	3033	5405.392707143324	3
0	3036	5408.328290747511	4
0	3039	5410.503903344757	5
0	3042	5419.037745082076	4
0	3044	5421.737782932806	5
0	3047	5422.170777664074	4
0	3049	5424.714436911891	5
0	3052	5425.878322248069	4
0	3054	5427.600581837224	3
0	3056	5431.897208871242	4
0	3059	5458.962630797347	3
0	3061	5463.399627350352	4
0	3064	5463.872642647387	5
0	3067	5464.370680570997	4
0	3069	5472.019685746481	5
0	3072	5474.952404590364	6
0	3075	5477.408146711653	5
0	3077	5491.813039336456	4
0	3079	5493.025905421318	3
0	3081	5493.776562500676	4
0	3084	5499.59032875496	5
0	3087	5499.70062747447	6
0	3090	5510.722970398244	5
0	3092	5512.286642705423	6
0	3095	5522.322736982525	5
0	3097	5523.930138723194	6
0	3100	5526.271022461315	5
0	3102	5526.834742969839	6
0	3105	5526.870006065309	7
0	3108	5529.622638239912	6
0	3110	5531.759257969927	5
0	3112	5542.611562162801	4
0	3114	5553.427617478962	5
0	3117	5553.78164086161	6
0	3120	5557.795091241589	7
0	3123	5557.834140859697	8
0	3125	5559.112907344438	9
0	3127	5560.967855107577	10
0	3129	5561.295495916015	11
0	3131	5564.492973744471	12
0	3133	5567.023039585017	11
0	3136	5568.212433709592	12
0	3138	5569.973309882838	11
0	3141	5571.681630193497	10
0	3144	5572.81222502142	9
0	3147	5575.71056249782	8
0	3150	5581.506439553148	7
0	3153	5585.248226453275	6
0	3155	5591.891612724588	5
0	3157	5592.166294988548	4
0	3159	5593.892772177102	5
0	3162	5595.716030660763	4
0	3164	5603.257894166664	3
0	3166	5609.458078168326	4
0	3169	5618.950862723582	3
0	3171	5628.622877933807	4
0	3174	5635.810364442805	5
0	3177	5635.995917703725	4
0	3179	5642.836843011207	5
0	3182	5645.647718602243	6
0	3185	5646.445178959464	5
0	3187	5658.997198079083	6
0	3190	5662.462803724314	5
0	3192	5663.029012128265	4
0	3194	5668.229425605609	5
0	3197	5668.490688279641	6
0	3200	5669.074042320072	7
0	3203	5674.430875991311	6
0	3205	5674.544317149461	5
0	3207	5680.360969037718	6
0	3210	5681.309058379698	7
0	3213	5682.012910808194	8
0	3215	5684.445942592486	7
0	3218	5686.186091660135	6
0	3220	5689.004227852101	5
0	3222	5692.621915913595	6
0	3225	5693.908663286932	5
0	3227	5694.173970233173	6
0	3230	5696.764637620005	7
0	3233	5697.3684093083	6
0	3235	5697.635559258689	5
0	3237	5698.300000935581	4
0	3239	5707.959004513984	3
0	3241	5718.014304493495	4
0	3244	5721.255100618327	3
0	3246	5732.547028293147	2
0	3248	5736.805059063725	1
0	3250	5737.862883005104	2
0	3253	5740.273253475264	3
0	3256	5743.878465953927	2
0	3258	5753.832756438416	1
0	3260	5758.817137912483	2
0	3263	5764.07354108303	1
0	3265	5771.527655961945	2
0	3268	5782.524938478655	3
0	3271	5783.098535862462	2
0	3273	5788.557967689006	3
0	3276	5793.949723859426	2
0	3278	5798.187730276627	3
0	3281	5799.132999413078	2
0	3283	5804.858195187121	1
0	3285	5807.857887030201	2
0	3288	5814.71236503541	3
0	3291	5824.097631801603	4
0	3294	5837.760588355281	5
0	3297	5838.397853201064	4
0	3299	5838.742338669247	3
0	3301	5842.936399820256	4
0	3304	5844.460728130582	3
0	3306	5845.416418504758	2
0	3308	5859.747031870999	1
0	3310	5892.627533107462	0
0	3312	5894.451578396543	1
0	3315	5904.60296820812	2
0	3318	5904.992164032777	3
0	3321	5906.248263598932	2
0	3323	5907.370203295976	3
0	3326	5912.883485509154	2
0	3328	5913.802322119959	3
0	3331	5916.909604279625	4
0	3334	5920.804499161116	3
0	3336	5928.41782940715	2
0	3338	5930.454682643253	1
0	3340	5936.066004740488	2
0	3343	5948.899920797175	3
0	3346	5957.711105057451	4
0	3349	5958.127525990845	5
0	3352	5960.717835554853	6
0	3355	5963.167245608166	7
0	3358	5978.911608985265	6
0	3360	5982.553372971128	5
0	3362	5983.594381733013	4
0	3364	5992.622987357956	5
0	3367	5994.488299276967	6
0	3370	5994.628569097842	5
0	3372	5997.809027652614	4
0	3374	6001.373437130932	5
0	3377	6003.386438848601	6
0	3380	6008.893254619234	5
0	3382	6009.654303992888	6
0	3385	6018.329180419398	7
0	3388	6020.501627593962	6
0	3390	6020.533668529666	5
0	3392	6020.906581121992	4
0	3394	6022.272976419552	5
0	3397	6023.32327148547	6
0	3400	6026.031958424143	7
0	3403	6028.21610072937	6
0	3405	6030.037207507779	7
0	3408	6040.311823113305	8
0	3410	6040.613664684114	7
0	3413	6045.911058259646	6
0	3415	6047.89818026576	7
0	3418	6052.505967699203	6
0	3420	6054.538388746653	7
0	3423	6057.631907290182	8
0	3425	6064.812283335821	9
0	3427	6066.581792728932	8
0	3430	6066.653725832918	7
0	3433	6067.847542450959	8
0	3435	6070.102220124129	7
0	3438	6071.971355819598	6
0	3440	6078.434568721695	7
0	3443	6085.89229965576	8
0	3445	6089.852463742557	7
0	3448	6100.585155145602	6
0	3450	6102.450930377345	7
0	3453	6115.574614849718	6
0	3455	6116.77856022514	7
0	3458	6117.175815647043	6
0	3460	6120.42725969662	5
0	3462	6122.795021858141	4
0	3464	6126.680211282813	3
0	3466	6132.05173418451	2
0	3468	6132.893921197046	3
0	3471	6137.208531189095	4
0	3474	6143.109542874095	3
0	3476	6145.60569935769	2
0	3478	6145.986595083091	3
0	3481	6146.382542542414	4
0	3484	6149.810130658963	3
0	3486	6153.092365242635	4
0	3489	6153.134037522577	3
0	3491	6167.218741818473	2
0	3493	6170.370342913514	3
0	3496	6188.656112160512	4
0	3499	6193.757941218955	3
0	3501	6195.996775061855	2
0	3503	6204.915565403719	3
0	3506	6205.859361600265	4
0	3509	6209.524308599609	5
0	3512	6215.909594364953	4
0	3514	6216.699935325854	3
0	3516	6218.626161440711	4
0	3519	6226.685154152788	5
0	3522	6230.7636827516	6
0	3525	6234.607854742053	5
0	3527	6235.606321521865	6
0	3530	6237.158707975871	5
0	3532	6238.425857341798	6
0	3535	6243.02618392361	5
0	3537	6244.729941257397	4
0	3539	6248.378581690628	5
0	3542	6248.654732088781	4
0	3544	6253.076382335065	5
0	3547	6253.451025754392	4
0	3549	6254.187345192131	5
0	3552	6255.091935167378	6
0	3555	6255.823686949806	7
0	3558	6256.339893366478	8
0	3560	6262.688760991909	7
0	3563	6263.197669162703	6
0	3565	6263.619239512082	5
0	3567	6272.97656634888	4
0	3569	6279.350517923844	3
0	3571	6281.456469492419	4
0	3574	6287.701435510278	5
0	3577	6292.401008858517	4
0	3579	6296.965309212391	3
0	3581	6303.605460712994	2
0	3583	6304.468537655159	3
0	3586	6313.974792928377	4
0	3589	6315.332560575623	5
0	3592	6323.302962130532	4
0	3594	6329.539948857022	5
0	3597	6330.590549600869	4
0	3599	6330.867160609058	5
0	3602	6333.111974696603	6
0	3605	6336.882193116025	7
0	3608	6346.318428722759	6
0	3610	6353.120165328568	7
0	3613	6354.195745445116	8
0	3615	6354.66621546965	9
0	3617	6361.049640962983	8
0	3620	6363.534317117747	7
0	3623	6371.294285906715	8
0	3625	6374.0810659352	9
0	3627	6393.260961354892	10
0	3629	6394.025315809509	11
0	3631	6394.471379585192	12
0	3633	6403.080091884393	11
0	3636	6404.292176122778	12
0	3638	6410.977118583297	11
0	3641	6420.150045771638	10
0	3644	6425.650563673164	11
0	3646	6427.348971750306	12
0	3648	6433.51091499334	11
0	3651	6438.467534155042	10
0	3654	6440.93762776548	9
0	3657	6444.161148543139	10
0	3659	6447.117699158546	9
0	3662	6452.031665410536	8
0	3665	6453.192291300145	9
0	3667	6463.337410239742	8
0	3670	6467.299682951067	9
0	3672	6468.015696899557	8
0	3675	6476.810151038742	7
0	3678	6480.491511020988	6
0	3680	6482.138494458989	7
0	3683	6487.491106254029	6
0	3685	6490.792390054192	7
0	3688	6491.227875236502	6
0	3690	6495.003268296891	5
0	3692	6495.077398241152	6
0	3695	6496.255066051416	7
0	3698	6498.042662901311	8
0	3700	6499.448159121424	7
0	3703	6502.227579879684	8
0	3705	6505.290731618737	9
0	3707	6505.857233120334	8
0	3710	6512.18458665987	7
0	3713	6515.524997369449	6
0	3715	6518.301148141138	5
0	3717	6526.31284162259	4
0	3719	6527.923667273439	5
0	3722	6529.645887721316	4
0	3724	6537.089655046607	3
0	3726	6548.112424344666	4
0	3729	6551.132215445541	3
0	3731	6551.152623248129	4
0	3734	6557.637307969355	5
0	3737	6558.690779985961	4
0	3739	6558.892721234024	5
0	3742	6570.689105372217	6
0	3745	6572.161245241138	7
0	3748	6576.238594527079	8
0	3750	6582.252893373422	9
0	3752	6584.607992948034	8
0	3755	6587.130144964641	9
0	3757	6587.28561830609	10
0	3759	6591.513224644281	11
0	3761	6591.831428097904	10
0	3764	6600.563134810355	11
0	3766	6604.636379441909	12
0	3768	6605.562868816938	13
0	3770	6606.368205764737	14
0	3772	6610.102319390181	15
0	3774	6615.009013705207	14
0	3777	6615.275462943902	15
0	3779	6616.435880956552	16
0	3781	6623.139896584857	17
0	3783	6631.979794606272	18
0	3785	6632.379293459447	17
0	3788	6642.511608999757	16
0	3791	6644.840431095203	17
0	3793	6646.182165036344	16
0	3796	6646.637174769918	15
0	3799	6647.053035054305	16
0	3801	6659.663072550778	15
0	3804	6660.42641479435	14
0	3807	6660.522381100817	13
0	3810	6661.1150436726	12
0	3813	6662.526278490948	11
0	3816	6663.15545539103	10
0	3819	6666.209158414377	9
0	3822	6675.304407937588	8
0	3825	6675.499309108595	9
0	3827	6683.741543303746	8
0	3830	6685.237502977276	9
0	3832	6688.398572525635	8
0	3835	6694.147486770418	9
0	3837	6694.399451672815	8
0	3840	6702.064369682116	9
0	3842	6702.646576640403	8
0	3845	6712.73960314974	9
0	3847	6716.123737084629	10
0	3849	6716.605732477423	9
0	3852	6720.281353876176	10
0	3854	6720.65082846578	11
0	3856	6722.16847980981	12
0	3858	6724.47289152107	11
0	3861	6742.4566279304	10
0	3864	6748.201708961028	9
0	3867	6749.238166124759	8
0	3870	6753.482244201972	7
0	3873	6759.218813201624	6
0	3875	6761.530684580374	5
0	3877	6771.895758285985	4
0	3879	6772.183057339692	3
0	3881	6775.075892888571	2
0	3883	6781.729322443932	3
0	3886	6783.573623801423	2
0	3888	6791.034906762651	1
0	3890	6800.417267060621	2
0	3893	6808.646835935098	3
0	3896	6809.591966567445	2
0	3898	6815.02276991802	3
0	3901	6815.079143117209	4
0	3904	6821.441312140316	5
0	3907	6832.448252727042	6
0	3910	6833.176604374097	7
0	3913	6837.044206293736	8
0	3915	6837.171153873202	9
0	3917	6837.532442787722	10
0	3919	6844.173428395275	9
0	3922	6845.081313359405	8
0	3925	6846.721549517341	9
0	3927	6846.763482902046	8
0	3930	6848.278055214421	7
0	3933	6848.636717790729	8
0	3935	6848.677645198465	9
0	3937	6857.798245099924	8
0	3940	6867.051321194522	9
0	3942	6867.297687573129	10
0	3944	6869.057561847178	11
0	3946	6887.052684645538	10
0	3949	6887.090601673382	9
0	3952	6889.270420724413	10
0	3954	6890.034956357354	11
0	3956	6902.689164016079	12
0	3958	6904.579597972526	13
0	3960	6933.134124195292	14
0	3962	6953.613582623041	13
0	3965	6960.563155673032	12
0	3968	6960.75550584975	11
0	3971	6961.217394217757	10
0	3974	6972.869232468295	11
0	3976	6973.472289136726	10
0	3979	6975.004290822523	9
0	3982	6985.734445936032	8
0	3985	6990.917388405802	7
0	3988	6992.021737940254	8
0	3990	6992.561609886447	7
0	3993	6995.145345218375	6
0	3995	6999.963669498744	7
0	3998	7002.423675145505	6
0	4000	7004.544904215785	5
0	4002	7004.783326608275	6
0	4005	7006.381029140107	5
0	4007	7009.636121657524	4
0	4009	7011.47967868151	5
0	4012	7012.27418939132	6
0	4015	7014.220608192429	5
0	4017	7018.497577355963	6
0	4020	7018.53488097414	7
0	4023	7034.111781396118	8
0	4025	7034.437609514175	9
0	4027	7040.5427760382	10
0	4029	7046.056621202331	9
0	4032	7046.309768339643	8
0	4035	7046.851808928998	7
0	4038	7046.961177815589	6
0	4040	7047.627129537384	7
0	4043	7050.498037105154	6
0	4045	7056.39418521878	7
0	4048	7058.614643729663	8
0	4050	7062.934253618366	7
0	4053	7063.433923023088	6
0	4055	7067.180077310867	5
0	4057	7071.242916021211	4
0	4059	7071.559890182035	5
0	4062	7073.924717881869	4
0	4064	7074.849623548646	5
0	4067	7086.717599699281	4
0	4069	7088.534754731535	3
0	4071	7099.118657089028	4
0	4074	7100.042290965935	3
0	4076	7100.974116922478	4
0	4079	7101.283374503526	5
0	4082	7106.615054522477	6
0	4085	7109.126831169663	7
0	4088	7112.715291691452	8
0	4090	7119.00988690842	7
0	4093	7124.333380572038	8
0	4095	7134.29188865531	7
0	4098	7134.591592864382	6
0	4100	7144.984319507056	7
0	4103	7149.16026444082	6
0	4105	7151.880578821871	7
0	4108	7152.574675686487	8
0	4110	7156.264402797566	9
0	4112	7159.925135771932	10
0	4114	7167.93012353596	9
0	4117	7169.080287181622	10
0	4119	7181.516184649319	11
0	4121	7189.19245672473	12
0	4123	7193.860306989555	11
0	4126	7195.073827829344	10
0	4129	7195.343874683582	9
0	4132	7203.113713261613	10
0	4134	7204.066624397195	9
0	4137	7204.155362162928	8
0	4140	7206.203148074435	9
0	4142	7206.608449044211	8
0	4145	7214.821265955331	7
0	4148	7222.234932170189	6
0	4150	7226.690344824955	7
0	4153	7230.787785260497	6
0	4155	7237.050505228476	7
0	4158	7243.425039374382	8
0	4160	7245.194364979191	7
0	4163	7245.451080196645	8
0	4165	7246.080474838488	7
0	4168	7246.477245947774	6
0	4170	7246.914922495909	7
0	4173	7260.824123479779	6
0	4175	7262.642828327623	7
0	4178	7262.811886290267	6
0	4180	7263.092353247597	5
0	4182	7268.758272510485	6
0	4185	7268.984946933842	7
0	4188	7270.313204191172	8
0	4190	7270.825843848407	7
0	4193	7277.21844899431	6
0	4195	7278.065865543925	7
0	4198	7283.088582035384	6
0	4200	7286.345227813953	5
0	4202	7286.447485385319	6
0	4205	7294.89969826808	7
0	4208	7304.310790407133	8
0	4210	7306.934612167507	7
0	4213	7307.257957489711	6
0	4215	7312.922750630065	7
0	4218	7323.224894223285	6
0	4220	7331.523874453083	7
0	4223	7344.441208502241	8
0	4225	7348.014688251968	9
0	4227	7351.303125555601	10
0	4229	7354.179295542431	11
0	4231	7354.254846475435	12
0	4233	7359.098588528229	13
0	4235	7361.131942784234	12
0	4238	7362.577762883629	11
0	4241	7365.640556864956	10
0	4244	7367.897485425636	9
0	4247	7370.017069893486	8
0	4250	7372.862221778026	7
0	4253	7373.789612502817	6
0	4255	7374.360446844078	7
0	4258	7376.70401065886	8
0	4260	7386.142265616841	7
0	4263	7389.462337451989	8
0	4265	7395.602601675185	7
0	4268	7398.153517201856	6
0	4270	7403.064813674558	5
0	4272	7403.998177044349	4
0	4274	7404.503894487679	3
0	4276	7408.500096600777	4
0	4279	7414.248781382351	5
0	4282	7414.57554196303	4
0	4284	7416.17269896325	5
0	4287	7420.61057048031	4
0	4289	7424.822215415451	3
0	4291	7426.862486413083	2
0	4293	7432.556401487745	3
0	4296	7433.582546947787	2
0	4298	7436.284418980055	3
0	4301	7440.439342263427	4
0	4304	7442.016951467421	3
0	4306	7443.391463920479	4
0	4309	7458.265247505321	5
0	4312	7462.513189095318	6
0	4315	7466.372053641399	5
0	4317	7472.863716846432	6
0	4320	7473.098578705241	7
0	4323	7481.043512285954	8
0	4325	7481.187190658866	7
0	4328	7481.538716950507	6
0	4330	7490.264561788168	5
0	4332	7499.089536954509	6
0	4335	7501.815909821293	5
0	4337	7525.15869139745	4
0	4339	7530.273758433708	3
0	4341	7531.421818368847	4
0	4344	7535.121496691654	3
0	4346	7538.400911196115	4
0	4349	7541.678593614097	3
0	4351	7546.93313113297	2
0	4353	7548.462322558061	1
0	4355	7548.612893744128	0
0	4357	7570.04802594383	1
0	4360	7574.292497101872	2
0	4363	7590.432928157718	3
0	4366	7594.706815539976	4
0	4369	7598.304331455539	5
0	4372	7608.601047842722	6
0	4375	7608.734449712152	7
0	4378	7611.64559709731	8
0	4380	7615.723746200698	7
0	4383	7617.691299320876	6
0	4385	7626.483085011488	5
0	4387	7628.650935267619	6
0	4390	7629.145158557167	7
0	4393	7629.480950499371	8
0	4395	7632.417001347368	9
0	4397	7635.831639896759	10
0	4399	7639.98162963656	9
0	4402	7649.373810929389	8
0	4405	7650.171067996884	9
0	4407	7652.750957734491	10
0	4409	7655.438209290505	9
0	4412	7657.058914958425	10
0	4414	7675.878291169176	9
0	4417	7677.761588567551	8
0	4420	7687.471655755109	7
0	4423	7687.931217258216	6
0	4425	7689.809870962857	5
0	4427	7701.906720262712	4
0	4429	7712.04140028988	3
0	4431	7721.153430018302	4
0	4434	7725.155404620858	3
0	4436	7727.856472417292	4
0	4439	7729.543212646734	3
0	4441	7729.905409890443	4
0	4444	7732.470036404673	5
0	4447	7735.092326894051	6
0	4450	7735.625249025678	5
0	4452	7737.673843607933	4
0	4454	7741.599064299975	3
0	4456	7744.322232344096	4
0	4459	7747.836148525669	5
0	4462	7768.898090747851	6
0	4465	7769.57577713112	7
0	4468	7773.947486424812	6
0	4470	7774.447252670309	5
0	4472	7789.280404678399	4
0	4474	7799.263773534877	3
0	4476	7805.157621241941	2
0	4478	7813.008215602817	3
0	4481	7814.13290263047	2
0	4483	7819.415182414986	3
0	4486	7826.826429956514	4
0	4489	7827.407495098813	5
0	4492	7831.203707656199	4
0	4494	7836.830552078493	3
0	4496	7839.798764964091	2
0	4498	7842.805327035042	1
0	4500	7844.491501761408	2
0	4503	7852.077426402713	3
0	4506	7863.489699719172	2
0	4508	7891.538572522909	3
0	4511	7892.106456957348	4
0	4514	7895.761086652592	5
0	4517	7899.544359410464	4
0	4519	7908.221126992869	3
0	4521	7911.695918405608	2
0	4523	7911.743915894585	3
0	4526	7915.037036997573	4
0	4529	7917.331104530885	3
0	4531	7936.4709583025	2
0	4533	7940.345679785366	3
0	4536	7941.683410489082	4
0	4539	7945.518530804583	5
0	4542	7945.823115351543	6
0	4545	7948.986361923342	5
0	4547	7951.058310731552	4
0	4549	7953.248077242286	5
0	4552	7960.112409000227	4
0	4554	7961.071423931601	3
0	4556	7984.322898544237	4
0	4559	7988.448102916557	5
0	4562	7988.647569279449	4
0	4564	7992.102879330295	5
0	4567	7992.882909037935	4
0	4569	8002.937916856645	3
0	4571	8003.109098118392	2
0	4573	8005.408222997736	3
0	4576	8018.796642300457	4
0	4579	8019.632418467517	5
0	4582	8021.292599964146	4
0	4584	8028.69886645009	5
0	4587	8035.211259156075	4
0	4589	8050.935823782351	3
0	4591	8055.527454049085	4
0	4594	8057.113478778759	3
0	4596	8059.595752883561	4
0	4599	8073.999846636552	3
0	4601	8075.898565761588	4
0	4604	8075.965707125929	3
0	4606	8082.057183340923	2
0	4608	8082.399939063304	3
0	4611	8086.087142291961	2
0	4613	8088.489532729574	3
0	4616	8090.783436372721	4
0	4619	8098.962376983397	5
0	4622	8102.01055600979	6
0	4625	8107.424058408372	5
0	4627	8115.093107545503	6
0	4630	8119.423480690915	5
0	4632	8130.410022087831	6
0	4635	8134.143164049733	5
0	4637	8135.785978597371	6
0	4640	8142.389682258952	7
0	4643	8145.324445242107	8
0	4645	8150.152346013551	9
0	4647	8151.734274972854	10
0	4649	8156.214939896901	9
0	4652	8157.087990294424	10
0	4654	8158.375347206232	9
0	4657	8159.697709575559	8
0	4660	8166.368678566737	7
0	4663	8167.681227121546	8
0	4665	8169.144843264729	7
0	4668	8169.520679605244	6
0	4670	8176.90540571944	7
0	4673	8177.695831435999	6
0	4675	8179.878782375518	5
0	4677	8186.393547768759	6
0	4680	8197.668371206553	7
0	4683	8198.250425776031	6
0	4685	8203.657060708876	7
0	4688	8215.709762635074	6
0	4690	8216.837715072597	5
0	4692	8217.004087918753	6
0	4695	8218.017036452654	5
0	4697	8224.782982296983	4
0	4699	8233.269169893475	3
0	4701	8237.388558283057	4
0	4704	8239.158971393775	3
0	4706	8255.167002037511	4
0	4709	8257.696862458716	5
0	4712	8262.930279710237	4
0	4714	8264.263606403419	3
0	4716	8275.042622500328	4
0	4719	8277.851863312809	5
0	4722	8278.119105956939	4
0	4724	8285.070766350247	3
0	4726	8285.244085965454	2
0	4728	8289.605749626993	1
0	4730	8326.107952215336	2
0	4733	8328.94064077066	3
0	4736	8330.649118953956	4
0	4739	8334.088016409782	5
0	4742	8348.618530704775	4
0	4744	8349.431685739507	3
0	4746	8352.194192037552	2
0	4748	8355.099781446513	3
0	4751	8355.395794865338	2
0	4753	8364.64106697877	3
0	4756	8372.083213646206	4
0	4759	8373.212024482294	5
0	4762	8377.147248685655	6
0	4765	8377.835231091822	5
0	4767	8384.696172917686	4
0	4769	8385.409221853779	5
0	4772	8395.482559016419	6
0	4775	8399.586633526302	5
0	4777	8405.063188298106	6
0	4780	8406.714908644022	5
0	4782	8410.859827029909	4
0	4784	8411.866555313546	3
0	4786	8418.225194294026	4
0	4789	8418.312063062341	5
0	4792	8421.452401805415	6
0	4795	8423.429388108907	7
0	4798	8424.138969352272	6
0	4800	8429.234194518048	5
0	4802	8474.998750180072	4
0	4804	8475.722247382936	3
0	4806	8481.327275449876	4
0	4809	8481.538429850914	5
0	4812	8482.539790832496	6
0	4815	8485.208009263976	7
0	4818	8486.609171876727	6
0	4820	8488.971582817603	7
0	4823	8489.064404802525	6
0	4825	8489.633049705602	5
0	4827	8489.986880144577	6
0	4830	8491.326036116625	5
0	4832	8491.475587302784	4
0	4834	8493.907684762873	5
0	4837	8496.538183169205	6
0	4840	8500.612813979738	5
0	4842	8506.685810717829	6
0	4845	8511.270160020453	5
0	4847	8513.761090482368	6
0	4850	8529.843132023281	7
0	4853	8530.07224095163	8
0	4855	8535.338091265672	7
0	4858	8538.533893048262	8
0	4860	8538.786326927933	9
0	4862	8541.053945652276	8
0	4865	8541.336341085223	7
0	4868	8542.506246009259	6
0	4870	8544.236333228006	5
0	4872	8548.381082565369	6
0	4875	8556.2707383312	7
0	4878	8559.033315075584	6
0	4880	8573.725347394939	7
0	4883	8581.30591425525	6
0	4885	8581.353745881331	7
0	4888	8582.450308230487	8
0	4890	8583.595632047558	7
0	4893	8585.311455253805	8
0	4895	8592.109698589947	7
0	4898	8594.058789879282	8
0	4900	8597.596946996431	9
0	4902	8599.142909031182	8
0	4905	8600.769638287449	7
0	4908	8603.673895392555	6
0	4910	8608.787354702015	7
0	4913	8610.743126507353	6
0	4915	8615.34785804514	7
0	4918	8616.204067113306	6
0	4920	8617.426864546475	7
0	4923	8621.61476674337	6
0	4925	8621.614895976763	7
0	4928	8622.182562599897	8
0	4930	8623.237144737178	9
0	4932	8625.633906670031	10
0	4934	8635.699791201929	9
0	4937	8652.093280416997	8
0	4940	8654.243010458752	7
0	4943	8657.25029179295	8
0	4945	8664.758606651075	9
0	4947	8672.663087058413	8
0	4950	8683.024457396533	7
0	4953	8683.601738644569	6
0	4955	8685.27345834272	7
0	4958	8686.283118885292	6
0	4960	8689.688770173723	5
0	4962	8690.577440609895	6
0	4965	8698.346857850746	5
0	4967	8705.554477365546	6
0	4970	8706.012343436832	5
0	4972	8722.249243265011	4
0	4974	8724.36743101633	3
0	4976	8724.921412457947	4
0	4979	8725.084800332977	5
0	4982	8744.876072208752	4
0	4984	8746.623173859096	5
0	4987	8747.39826565807	6
0	4990	8751.532073465056	5
0	4992	8756.385971413282	4
0	4994	8760.36429000349	3
0	4996	8761.842179310061	4
0	4999	8762.649627184981	5
0	5002	8766.645804200214	4
0	5004	8771.131813125552	5
0	5007	8771.904611612907	4
0	5009	8778.309978080307	5
0	5012	8785.117665785331	6
0	5015	8793.092598281799	7
0	5018	8799.676175132443	6
0	5020	8800.506010485606	7
0	5023	8800.537500005418	6
0	5025	8801.364323901149	5
0	5027	8809.996785446962	4
0	5029	8812.030982249792	5
0	5032	8812.530855449567	4
0	5034	8819.501840890187	5
0	5037	8820.211607119452	4
0	5039	8829.835072569796	5
0	5042	8833.677607696879	4
0	5044	8834.906431310119	5
0	5047	8839.11292643098	4
0	5049	8841.554168969496	3
0	5051	8845.720273845832	4
0	5054	8855.840053844268	5
0	5057	8856.723294443389	6
0	5060	8861.542285660023	7
0	5063	8862.997233618499	6
0	5065	8867.013182216267	5
0	5067	8867.928869751334	6
0	5070	8868.984559664729	7
0	5073	8874.409044493231	6
0	5075	8874.850094396364	5
0	5077	8879.12415375559	6
0	5080	8879.477272111187	5
0	5082	8888.621090528559	4
0	5084	8892.96812399364	5
0	5087	8894.687995003205	4
0	5089	8895.467650529011	5
0	5092	8901.586878504113	4
0	5094	8903.321578633029	5
0	5097	8903.917456813092	4
0	5099	8905.94566997322	5
0	5102	8909.432913850534	4
0	5104	8909.812927759893	5
0	5107	8910.062906449431	4
0	5109	8913.337018639384	5
0	5112	8915.824401112791	4
0	5114	8916.976509459564	5
0	5117	8921.467438868041	6
0	5120	8934.800411268002	5
0	5122	8947.29391194143	4
0	5124	8957.35617159255	5
0	5127	8959.108006466372	6
0	5130	8967.022175945388	7
0	5133	8968.544628116718	8
0	5135	8969.247436676482	7
0	5138	8970.854275918517	6
0	5140	8976.720823866632	5
0	5142	8978.553815608632	4
0	5144	8978.823304725668	3
0	5146	8982.355773810971	4
0	5149	8982.843597563191	5
0	5152	8984.721553161037	6
0	5155	8994.394470671772	5
0	5157	9000.684355918219	6
0	5160	9002.726566760403	7
0	5163	9008.195688483035	8
0	5165	9014.776291944503	9
0	5167	9017.234293000828	10
0	5169	9018.072706172414	9
0	5172	9018.079002143688	10
0	5174	9018.196957355669	11
0	5176	9019.669165369423	10
0	5179	9029.015580438805	11
0	5181	9030.2440485679	10
0	5184	9033.57635041432	9
0	5187	9037.098053698057	10
0	5189	9038.537807367469	9
0	5192	9040.85624055021	8
0	5195	9042.596964747779	7
0	5198	9043.383536066507	8
0	5200	9046.323159831564	9
0	5202	9046.60110798368	8
0	5205	9046.793502397236	7
0	5208	9054.423935864704	6
0	5210	9057.680694662214	5
0	5212	9074.052483728087	4
0	5214	9092.358261798768	3
0	5216	9098.253230849823	2
0	5218	9104.625151368567	3
0	5221	9112.990716468906	4
0	5224	9130.239371305081	3
0	5226	9134.372466223646	4
0	5229	9134.395295866881	3
0	5231	9139.719757610166	4
0	5234	9143.73634371897	3
0	5236	9147.34251147385	2
0	5238	9153.312521222579	3
0	5241	9153.829047546773	2
0	5243	9171.633383262329	1
0	5245	9176.226100140295	2
0	5248	9184.315353561922	3
0	5251	9192.1456451739	4
0	5254	9196.721471732344	5
0	5257	9201.938414740754	6
0	5260	9205.745448781346	5
0	5262	9212.573521009628	6
0	5265	9223.135965901653	5
0	5267	9225.444668734507	4
0	5269	9228.873948954479	3
0	5271	9229.244262035262	2
0	5273	9235.511786161752	1
0	5275	9273.904164521723	2
0	5278	9278.665748024468	3
0	5281	9290.826078355676	4
0	5284	9291.978484963523	3
0	5286	9294.523327193389	2
0	5288	9298.358206982814	3
0	5291	9299.003383173865	4
0	5294	9304.871373985249	5
0	5297	9305.709259354883	6
0	5300	9308.057447831282	7
0	5303	9309.938930974654	6
0	5305	9313.157151202067	7
0	5308	9323.634620912499	8
0	5310	9324.06409187249	7
0	5313	9326.285583270271	6
0	5315	9327.347128571134	5
0	5317	9334.13161008212	6
0	5320	9336.212384538253	5
0	5322	9337.66804954133	4
0	5324	9338.282483904542	5
0	5327	9344.959410427388	6
0	5330	9365.434742379467	7
0	5333	9367.102530860353	8
0	5335	9368.245538251339	9
0	5337	9370.36556816622	8
0	5340	9370.503058413546	7
0	5343	9372.291677335436	8
0	5345	9372.740972005017	7
0	5348	9373.439401879386	6
0	5350	9375.037694252567	5
0	5352	9377.891219784632	6
0	5355	9379.119051468729	7
0	5358	9379.644896223197	6
0	5360	9381.516865883553	7
0	5363	9383.028344145138	8
0	5365	9386.736983060985	7
0	5368	9391.234377541167	6
0	5370	9394.230808284961	5
0	5372	9400.762644942489	4
0	5374	9402.150008845343	5
0	5377	9403.163314776712	6
0	5380	9405.689427777379	5
0	5382	9407.451378436979	4
0	5384	9413.482101521234	3
0	5386	9416.57163193224	4
0	5389	9419.474617662421	3
0	5391	9428.440738555528	4
0	5394	9430.899197387925	5
0	5397	9432.29697348567	4
0	5399	9437.053646885657	3
0	5401	9439.98105625174	4
0	5404	9455.484781781321	3
0	5406	9460.712138605422	4
0	5409	9465.59453220902	5
0	5412	9471.452613993111	6
0	5415	9471.495725454004	7
0	5418	9478.085004943992	8
0	5420	9478.656495937497	7
0	5423	9487.152968799368	8
0	5425	9487.324253445081	7
0	5428	9501.860588662432	8
0	5430	9514.009168587264	7
0	5433	9515.213149495957	6
0	5435	9516.456214045488	5
0	5437	9518.385255132059	4
0	5439	9519.016053840395	3
0	5441	9520.542887000761	4
0	5444	9530.020444118301	5
0	5447	9531.470173073084	4
0	5449	9532.268644308171	3
0	5451	9549.227413166368	4
0	5454	9552.324251781132	5
0	5457	9560.819625317364	4
0	5459	9564.42084241543	5
0	5462	9571.70168345579	4
0	5464	9572.705139472441	5
0	5467	9581.222416550754	6
0	5470	9581.554133042362	5
0	5472	9585.067802740001	4
0	5474	9588.518147765661	5
0	5477	9588.631136278315	6
0	5480	9595.089251269332	7
0	5483	9599.379351381653	6
0	5485	9600.421697143901	5
0	5487	9608.068202308176	4
0	5489	9609.144992261594	5
0	5492	9609.44383704106	4
0	5494	9622.559619155028	5
0	5497	9623.793794359023	4
0	5499	9634.283847799429	3
0	5501	9636.09974303532	4
0	5504	9636.529323109074	3
0	5506	9641.689590901274	2
0	5508	9647.035566244655	1
0	5510	9647.453719803508	2
0	5513	9653.568412393143	3
0	5516	9661.914295109279	4
0	5519	9677.599106338968	5
0	5522	9682.638451742093	4
0	5524	9696.702566113986	3
0	5526	9710.517168636956	4
0	5529	9713.758244035448	3
0	5531	9720.17223542969	2
0	5533	9723.597354893601	1
0	5535	9732.594015305103	2
0	5538	9737.289335236207	3
0	5541	9740.001221731319	4
0	5544	9740.888328565553	3
0	5546	9752.414804290187	4
0	5549	9753.881881027765	5
0	5552	9755.945570308014	6
0	5555	9761.197833351208	7
0	5558	9765.959386481343	6
0	5560	9771.251991557515	7
0	5563	9773.689979967633	8
0	5565	9773.948287357344	7
0	5568	9774.107204781004	8
0	5570	9777.391170063479	9
0	5572	9778.0471453385	8
0	5575	9778.45868863252	7
0	5578	9779.187134061495	8
0	5580	9785.946979978702	7
0	5583	9787.708072719009	8
0	5585	9788.808345474642	9
0	5587	9795.927951596927	10
0	5589	9805.564833035478	9
0	5592	9805.71106960443	8
0	5595	9812.080199069895	7
0	5598	9813.027195626069	6
0	5600	9814.584319237919	5
0	5602	9818.924046921787	4
0	5604	9820.979963536928	5
0	5607	9823.313261187616	6
0	5610	9824.779707428163	7
0	5613	9831.050672013588	8
0	5615	9832.681329601638	7
0	5618	9833.191005818913	6
0	5620	9838.40858528945	7
0	5623	9841.423392499249	8
0	5625	9846.32168377417	7
0	5628	9846.995110335537	6
0	5630	9854.594758944676	7
0	5633	9854.905505740074	8
0	5635	9857.792491257111	7
0	5638	9869.994250590063	6
0	5640	9876.59698238998	5
0	5642	9883.597630537099	4
0	5644	9887.474779750841	5
0	5647	9895.037135395	4
0	5649	9896.727810128506	3
0	5651	9898.768375046433	4
0	5654	9907.89084688755	5
0	5657	9911.450962007285	4
0	5659	9917.153199403409	3
0	5661	9918.858048080131	2
0	5663	9919.553787532009	1
0	5665	9935.77712091881	2
0	5668	9936.364826829193	3
0	5671	9936.903942128398	4
0	5674	9938.766322913316	5
0	5677	9940.854942213778	6
0	5680	9942.012603726211	7
0	5683	9944.430039132428	8
0	5685	9949.458052387251	9
0	5687	9953.271374357871	8
0	5690	9965.216127322102	7
0	5693	9966.604815978706	8
0	5695	9971.184521805242	9
0	5697	9971.58825798508	8
0	5700	9972.805897142228	9
0	5702	9976.342416731134	8
0	5705	9977.145250471726	7
0	5708	9979.356220379173	6
0	5710	9989.852988789399	7
0	5713	9990.421299131312	8
0	5715	9991.370086348294	9
0	5717	9994.669049206845	10
0	5719	9996.90088614007	11
0	5721	10001.689849992906	10
0	5724	10005.772187673532	11
0	5726	10007.609505101264	10
0	5729	10018.195969031522	9
0	5732	10019.993590014903	8
0	5735	10027.633516447676	7
0	5738	10031.209283770006	6
0	5740	10034.382822682396	5
0	5742	10035.512001456789	6
0	5745	10039.99731124059	7
0	5748	10041.301040383423	6
0	5750	10042.933366847331	7
0	5753	10043.168765159123	6
0	5755	10046.721530817629	7
0	5758	10047.865043927546	6
0	5760	10054.240102912889	7
0	5763	10055.907851363487	8
0	5765	10056.950645005278	9
0	5767	10058.48190000184	8
0	5770	10073.219758078915	7
0	5773	10075.385811124044	6
0	5775	10079.653238406659	5
0	5777	10085.777240943737	6
0	5780	10086.989154552037	7
0	5783	10089.659684437643	6
0	5785	10090.041601514746	5
0	5787	10092.946885787115	6
0	5790	10098.714647950445	5
0	5792	10102.565381730347	4
0	5794	10105.477678152064	3
0	5796	10121.686773748808	2
0	5798	10125.765013595704	1
0	5800	10136.118111319536	2
0	5803	10143.424342973557	1
0	5805	10152.982356007777	2
0	5808	10156.086213231337	3
0	5811	10158.832232043928	2
0	5813	10164.947979384979	3
0	5816	10171.89925361779	2
0	5818	10179.550787196839	3
0	5821	10180.755189440588	4
0	5824	10185.226784690362	5
0	5827	10196.124368814499	4
0	5829	10197.052443981686	3
0	5831	10204.074673940301	4
0	5834	10207.306706920669	3
0	5836	10215.600987826192	4
0	5839	10221.123794339052	3
0	5841	10221.244799227044	4
0	5844	10223.325026212707	5
0	5847	10223.749311042711	6
0	5850	10224.633565637357	7
0	5853	10228.857076884875	6
0	5855	10230.724146051426	7
0	5858	10244.553079967241	6
0	5860	10249.763067942689	7
0	5863	10252.030495462709	8
0	5865	10253.110790359521	7
0	5868	10256.844864249208	6
0	5870	10259.050506728404	7
0	5873	10260.753080242954	6
0	5875	10262.944599738642	5
0	5877	10264.851476889307	4
0	5879	10269.843370448842	3
0	5881	10271.027264767806	4
0	5884	10277.661518684582	5
0	5887	10278.113188178478	4
0	5889	10281.113012148615	5
0	5892	10284.756949639537	4
0	5894	10295.964637947253	5
0	5897	10297.386030148158	6
0	5900	10297.991655313012	5
0	5902	10299.720215158963	4
0	5904	10300.528450541062	3
0	5906	10301.984908951281	4
0	5909	10311.544459674448	3
0	5911	10312.657041604976	2
0	5913	10317.454565997111	1
0	5915	10329.363501753562	2
0	5918	10332.132941406303	3
0	5921	10333.363363443959	4
0	5924	10336.73760037856	5
0	5927	10346.077045657463	4
0	5929	10347.120464315839	5
0	5932	10350.071211660928	4
0	5934	10354.973468951611	5
0	5937	10357.216911150235	4
0	5939	10365.139046131585	5
0	5942	10367.340020584814	6
0	5945	10367.822320000933	5
0	5947	10371.077975308088	4
0	5949	10385.721325543052	5
0	5952	10388.457982987084	4
0	5954	10388.923525392105	5
0	5957	10393.127582342774	6
0	5960	10395.411034664487	5
0	5962	10396.722057763461	4
0	5964	10403.413780219087	5
0	5967	10403.486857093117	6
0	5970	10407.192274929344	5
0	5972	10407.4084736371	6
0	5975	10411.169034320439	7
0	5978	10411.857188507446	6
0	5980	10416.057294772689	7
0	5983	10418.819405722282	8
0	5985	10422.135861631461	7
0	5988	10426.935943979733	8
0	5990	10428.097741060728	9
0	5992	10431.645064123831	8
0	5995	10436.943858514576	7
0	5998	10438.423767259174	6
0	6000	10445.753266089231	5
0	6002	10446.271628650325	4
0	6004	10448.321607450486	5
0	6007	10449.075403850608	4
0	6009	10460.131123664353	5
0	6012	10462.392428932894	4
0	6014	10463.909726944113	3
0	6016	10477.532395101643	2
0	6018	10488.313070761601	3
0	6021	10494.861216631687	2
0	6023	10495.050038527772	3
0	6026	10499.536319299826	4
0	6029	10502.576481312969	3
0	6031	10512.102610782283	2
0	6033	10517.387282742553	1
0	6035	10523.402044813466	0
0	6037	10558.029936550414	1
0	6040	10561.230911290587	2
0	6043	10561.419901272257	3
0	6046	10569.60783181755	4
0	6049	10572.534714680618	5
0	6052	10573.145857476997	6
0	6055	10579.929048390401	5
0	6057	10589.741909579966	4
0	6059	10593.022840094334	3
0	6061	10595.603152409608	4
0	6064	10597.723836791647	5
0	6067	10598.937413868495	6
0	6070	10598.995952331399	5
0	6072	10602.384526373249	4
0	6074	10603.961786448205	3
0	6076	10604.364210759591	4
0	6079	10606.27514611255	3
0	6081	10606.365056431958	2
0	6083	10613.940661710584	3
0	6086	10619.395111108794	4
0	6089	10624.76309332974	5
0	6092	10628.184789439273	6
0	6095	10629.466849265516	7
0	6098	10631.517188912129	8
0	6100	10634.647945567647	7
0	6103	10639.386311090371	8
0	6105	10639.488097716894	7
0	6108	10640.505383617443	8
0	6110	10650.609378328658	7
0	6113	10652.778624218816	6
0	6115	10654.640449002839	7
0	6118	10658.412971840451	8
0	6120	10658.58811554482	7
0	6123	10664.849012320036	8
0	6125	10666.120311294907	7
0	6128	10669.110029423729	8
0	6130	10670.970925181674	9
0	6132	10672.472395438178	10
0	6134	10673.055303656684	9
0	6137	10675.115004139728	10
0	6139	10677.902096231414	9
0	6142	10679.985045771859	10
0	6144	10683.249362363267	9
0	6147	10685.133225506155	8
0	6150	10688.155440796604	7
0	6153	10691.954270175512	8
0	6155	10693.772995028094	7
0	6158	10698.105848551996	6
0	6160	10704.554862730104	5
0	6162	10708.713522715512	4
0	6164	10709.616704827202	5
0	6167	10720.821269450915	4
0	6169	10727.399030895083	5
0	6172	10736.351375717464	4
0	6174	10740.471166077617	3
0	6176	10756.800234450233	2
0	6178	10765.503698942439	1
0	6180	10769.86440658382	2
0	6183	10782.574868781708	3
0	6186	10796.080657863879	2
0	6188	10799.240783851321	3
0	6191	10814.032772270616	2
0	6193	10817.500019578791	1
0	6195	10821.248124507793	2
0	6198	10839.101824413524	1
0	6200	10856.39176711385	0
0	6202	10868.701556020275	1
0	6205	10871.506645249617	2
0	6208	10877.743815912467	1
0	6210	10900.438674059155	0
0	6212	10911.490576400335	1
0	6215	10911.995218453076	0
0	6217	10914.071673423273	1
0	6220	10916.249147422298	2
0	6223	10919.843563141365	3
0	6226	10921.341550744878	2
0	6228	10938.933459767147	3
0	6231	10939.836250589694	4
0	6234	10943.458134480435	5
0	6237	10944.68171110109	6
0	6240	10944.837640025666	7
0	6243	10950.540489388049	8
0	6245	10950.78652999263	9
0	6247	10951.773974015324	10
0	6249	10952.94395868946	11
0	6251	10957.1424976231	10
0	6254	10961.257785167084	9
0	6257	10966.514080850721	10
0	6259	10975.316356213067	9
0	6262	10981.961469444143	8
0	6265	10985.769698186978	7
0	6268	10996.660952674244	6
0	6270	11000.236483545692	5
0	6272	11007.333254208576	4
0	6274	11017.959169349462	5
0	6277	11021.542580139718	4
0	6279	11028.435382322755	5
0	6282	11040.839393776037	4
0	6284	11044.658433219828	5
0	6287	11045.22550111789	6
0	6290	11046.325365110916	5
0	6292	11053.382060875437	6
0	6295	11053.975336738672	5
0	6297	11056.238268096038	4
0	6299	11061.06142579512	5
0	6302	11061.457292261977	6
0	6305	11063.224643966619	5
0	6307	11065.041542755224	6
0	6310	11065.338615657426	5
0	6312	11066.256228077535	4
0	6314	11071.132787646423	3
0	6316	11082.141328994173	4
0	6319	11092.639298637478	5
0	6322	11096.289970772333	6
0	6325	11103.989281152893	7
0	6328	11105.435345994309	6
0	6330	11109.606705366074	5
0	6332	11117.814071595168	6
0	6335	11121.669565636739	5
0	6337	11122.496323081793	4
0	6339	11124.258797349076	3
0	6341	11129.70906839865	2
0	6343	11154.316705009048	1
0	6345	11163.250872412877	2
0	6348	11164.193312295048	1
0	6350	11164.351267902474	2
0	6353	11172.424228398374	1
0	6355	11175.725841446549	0
0	6357	11184.777039226674	1
0	6360	11184.952613142006	2
0	6363	11185.17246829524	3
0	6366	11190.285747451783	4
0	6369	11191.426707080814	3
0	6371	11192.314378255448	2
0	6373	11196.670601131014	3
0	6376	11202.069588564206	4
0	6379	11204.383495351772	5
0	6382	11205.61860391955	6
0	6385	11213.156877069311	7
0	6388	11219.932194188677	6
0	6390	11220.123092797487	7
0	6393	11220.742069731414	8
0	6395	11223.640505078467	9
0	6397	11223.78736984537	8
0	6400	11227.021796522672	9
0	6402	11233.034133247815	10
0	6404	11236.615769219911	9
0	6407	11239.174528578006	8
0	6410	11239.82197147531	9
0	6412	11240.332121328909	10
0	6414	11248.591358873763	11
0	6416	11251.488225042304	10
0	6419	11252.087031239558	11
0	6421	11252.776603986231	10
0	6424	11253.301329456698	11
0	6426	11258.261178144248	12
0	6428	11260.968899715505	13
0	6430	11264.622233402974	14
0	6432	11272.455726672718	13
0	6435	11272.604140495756	14
0	6437	11274.293371280741	15
0	6439	11274.546360937691	14
0	6442	11275.801982510415	15
0	6444	11279.649552396329	14
0	6447	11286.343186920536	15
0	6449	11288.468490075043	16
0	6451	11290.975513806287	17
0	6453	11291.377732252782	16
0	6456	11292.046348167854	15
0	6459	11293.859430945033	16
0	6461	11294.936392730576	15
0	6464	11296.336949278438	14
0	6467	11298.151739375565	15
0	6469	11301.265652089906	14
0	6472	11303.546291270571	13
0	6475	11306.151522150275	12
0	6478	11306.972012645807	11
0	6481	11313.909638366078	10
0	6484	11314.984739548549	11
0	6486	11318.870378200276	10
0	6489	11322.597321833757	9
0	6492	11325.080964162232	10
0	6494	11325.209270128037	11
0	6496	11327.165359186404	10
0	6499	11333.370839844199	11
0	6501	11337.115740693649	10
0	6504	11342.725324880948	11
0	6506	11345.493761851555	10
0	6509	11346.732804483076	9
0	6512	11346.930934569166	8
0	6515	11351.235063467436	7
0	6518	11364.368151489332	6
0	6520	11367.299478376852	7
0	6523	11371.399501852002	8
0	6525	11374.682939674417	7
0	6528	11377.851174219603	8
0	6530	11380.257793685755	7
0	6533	11385.305899281264	6
0	6535	11386.845034505179	5
0	6537	11393.81804589456	6
0	6540	11394.137640727553	7
0	6543	11400.311810739172	8
0	6545	11402.599179726983	7
0	6548	11408.846651554321	8
0	6550	11409.045694794266	9
0	6552	11413.642432157036	8
0	6555	11414.45435880821	7
0	6558	11416.757570454335	8
0	6560	11419.764183111566	9
0	6562	11424.319685969889	10
0	6564	11424.742497804906	11
0	6566	11429.927117361038	10
0	6569	11435.841878027247	9
0	6572	11450.090728918821	10
0	6574	11451.727996824084	11
0	6576	11451.736373225924	12
0	6578	11460.411033871669	11
0	6581	11465.036740209828	12
0	6583	11469.482617938585	11
0	6586	11472.551224967993	12
0	6588	11476.018855578998	11
0	6591	11476.890864269964	12
0	6593	11480.048218891945	13
0	6595	11480.06019648519	14
0	6597	11489.992865216881	13
0	6600	11492.660345265915	14
0	6602	11497.974588312276	15
0	6604	11501.414608777581	14
0	6607	11504.550712828964	13
0	6610	11508.423486592381	12
0	6613	11515.566096802821	13
0	6615	11518.806236582112	12
0	6618	11524.529900687053	11
0	6621	11527.459320367249	10
0	6624	11530.398587017312	11
0	6626	11543.43500470526	12
0	6628	11550.64726269031	11
0	6631	11552.688530507727	10
0	6634	11555.249767392449	9
0	6637	11555.964506840832	8
0	6640	11556.587974142255	7
0	6643	11558.479074684345	6
0	6645	11559.358002093272	5
0	6647	11565.115544739771	4
0	6649	11565.289064627935	3
0	6651	11576.311259351497	4
0	6654	11577.304580784994	5
0	6657	11577.837799374476	6
0	6660	11580.494109971245	7
0	6663	11583.029270079578	6
0	6665	11588.101736177989	5
0	6667	11601.981876345115	4
0	6669	11607.37784914808	5
0	6672	11609.178261934197	6
0	6675	11615.318777796748	5
0	6677	11616.281584516157	6
0	6680	11616.902579957802	5
0	6682	11617.766603060376	6
0	6685	11621.153073796286	7
0	6688	11625.440060144673	6
0	6690	11627.985365823751	5
0	6692	11631.254835248381	4
0	6694	11647.552909656929	5
0	6697	11652.807999968529	6
0	6700	11654.836669740391	5
0	6702	11674.508797499633	6
0	6705	11689.925172662021	7
0	6708	11691.780133343822	6
0	6710	11692.569109439507	5
0	6712	11695.836100126437	6
0	6715	11701.043043047417	5
0	6717	11704.662121625958	6
0	6720	11706.133344124784	5
0	6722	11706.845540690301	6
0	6725	11712.755320514662	5
0	6727	11718.359760191672	6
0	6730	11719.994582626401	5
0	6732	11725.67504376949	4
0	6734	11738.400013204045	5
0	6737	11739.394888004309	6
0	6740	11741.714198220192	5
0	6742	11760.167632489853	4
0	6744	11779.528091634604	3
0	6746	11781.452612662441	4
0	6749	11782.72004642901	5
0	6752	11787.294678980937	4
0	6754	11788.968726555853	5
0	6757	11793.257747074493	6
0	6760	11797.049649947277	7
0	6763	11799.993952675064	6
0	6765	11800.189278856217	5
0	6767	11801.18759788142	6
0	6770	11801.377102425012	5
0	6772	11802.342698486702	6
0	6775	11806.833056406102	5
0	6777	11806.877027420562	4
0	6779	11811.326500756681	5
0	6782	11817.03129274278	6
0	6785	11820.784688515915	7
0	6788	11834.942159341218	8
0	6790	11838.197093169145	7
0	6793	11850.503885057113	6
0	6795	11853.084277714102	5
0	6797	11862.618403020236	6
0	6800	11863.878859011414	7
0	6803	11865.164938385752	6
0	6805	11866.862486125947	7
0	6808	11870.785518648871	8
0	6810	11871.019618089879	7
0	6813	11871.125920929836	8
0	6815	11873.49995603043	9
0	6817	11874.031148893754	8
0	6820	11881.500680029678	7
0	6823	11883.716722871962	8
0	6825	11888.170479397305	7
0	6828	11893.449975818303	6
0	6830	11895.333171951825	5
0	6832	11899.474128634779	4
0	6834	11911.038194133333	3
0	6836	11916.074170484288	2
0	6838	11919.247392430311	3
0	6841	11925.838841880433	2
0	6843	11933.32304322468	3
0	6846	11935.361261869047	4
0	6849	11936.243706489305	3
0	6851	11939.185343176513	4
0	6854	11942.63385596001	3
0	6856	11943.808927936232	2
0	6858	11947.025159045711	3
0	6861	11958.979263200272	4
0	6864	11966.063012432675	3
0	6866	11987.327312976693	2
0	6868	11996.368895825423	1
0	6870	12001.265253489078	2
0	6873	12001.528968856831	3
0	6876	12003.131759542675	2
0	6878	12008.312421236824	1
0	6880	12010.255667801135	2
0	6883	12026.637550562062	3
0	6886	12030.159639890138	4
0	6889	12033.264771630548	3
0	6891	12042.090188555856	2
0	6893	12042.690104757071	3
0	6896	12052.213412352203	2
0	6898	12054.52246098868	3
0	6901	12063.740084775733	2
0	6903	12073.177008466992	1
0	6905	12077.041197352669	2
0	6908	12077.800221439038	3
0	6911	12078.237790750103	2
0	6913	12091.42625199995	1
0	6915	12102.356644057302	2
0	6918	12109.778897655414	1
0	6920	12110.79466090129	2
0	6923	12112.167459984065	3
0	6926	12117.587324363923	2
0	6928	12121.434961719708	1
0	6930	12127.117337441479	2
0	6933	12127.242887028143	1
0	6935	12128.744445579076	2
0	6938	12135.735494420771	1
0	6940	12137.394515148561	2
0	6943	12137.929105238251	3
0	6946	12138.384130178792	2
0	6948	12144.119723860915	3
0	6951	12150.365136823962	2
0	6953	12162.816450006522	1
0	6955	12170.054461210851	2
0	6958	12170.410090812958	3
0	6961	12173.416245838014	4
0	6964	12173.597942651441	5
0	6967	12190.969305783127	4
0	6969	12193.199796377063	3
0	6971	12199.688523304147	4
0	6974	12203.557462385528	3
0	6976	12206.830125595943	4
0	6979	12208.326624710171	3
0	6981	12215.078621924176	2
0	6983	12215.938663693682	3
0	6986	12217.698282877152	4
0	6989	12220.101229208942	3
0	6991	12220.61883356373	4
0	6994	12220.77806300863	5
0	6997	12221.935792793035	6
0	7000	12226.534081951866	7
0	7003	12234.403221802843	8
0	7005	12248.164723012261	7
0	7008	12249.655607229348	8
0	7010	12259.728253515653	7
0	7013	12265.352486014449	8
0	7015	12265.674033732584	7
0	7018	12268.21113520343	8
0	7020	12268.723305053476	9
0	7022	12276.692452037361	8
0	7025	12277.94394898026	7
0	7028	12280.62216685171	6
0	7030	12280.919846179926	7
0	7033	12281.797647070164	8
0	7035	12285.81234163653	7
0	7038	12299.990719732212	8
0	7040	12301.675138421049	9
0	7042	12303.868080304262	8
0	7045	12304.876754475063	7
0	7048	12307.053727542086	8
0	7050	12307.8686089554	9
0	7052	12308.818447570831	10
0	7054	12309.162647621656	11
0	7056	12313.475482779849	10
0	7059	12314.330186494672	11
0	7061	12315.913491885318	10
0	7064	12323.206164909051	9
0	7067	12329.513790069132	8
0	7070	12333.003448352943	9
0	7072	12336.742909617383	8
0	7075	12340.933469596508	7
0	7078	12343.646995851408	6
0	7080	12346.920863045149	7
0	7083	12349.121504527305	6
0	7085	12355.007137780899	7
0	7088	12359.24585370662	6
0	7090	12365.510318407859	5
0	7092	12365.5275603451	6
0	7095	12368.561254390362	5
0	7097	12383.936658211451	6
0	7100	12384.411456910993	7
0	7103	12389.63662397106	6
0	7105	12392.457652100239	7
0	7108	12397.711566541392	8
0	7110	12399.508974272452	9
0	7112	12405.387832089819	8
0	7115	12406.072880608877	7
0	7118	12409.736810891786	8
0	7120	12410.561094930875	7
0	7123	12410.877532075475	6
0	7125	12412.434574639402	5
0	7127	12426.072700956557	4
0	7129	12426.988447580517	5
0	7132	12432.931978746436	4
0	7134	12433.959035327697	5
0	7137	12437.817141488335	6
0	7140	12446.743113399399	7
0	7143	12447.237876661114	8
0	7145	12455.91549627454	9
0	7147	12456.032585902015	8
0	7150	12457.611475095361	9
0	7152	12467.02305202171	8
0	7155	12468.712969971833	7
0	7158	12469.908776080956	6
0	7160	12470.493243220621	5
0	7162	12477.011297432773	6
0	7165	12477.105048284412	5
0	7167	12486.242766869463	6
0	7170	12490.215257655549	5
0	7172	12492.0917825452	6
0	7175	12493.55417814199	7
0	7178	12493.686975414445	6
0	7180	12496.379792120668	7
0	7183	12498.609582665308	6
0	7185	12498.916814368334	5
0	7187	12501.083493035651	4
0	7189	12505.686600002403	5
0	7192	12518.10230606313	6
0	7195	12518.471827191599	5
0	7197	12519.57786931896	6
0	7200	12525.991435192972	5
0	7202	12528.677372922993	6
0	7205	12537.869433982053	7
0	7208	12541.105905456718	6
0	7210	12541.44508008363	7
0	7213	12551.923848321347	8
0	7215	12561.988571871878	9
0	7217	12564.774205859001	8
0	7220	12567.153743528864	7
0	7223	12569.295999227967	6
0	7225	12569.356722648288	5
0	7227	12569.653088579448	4
0	7229	12584.10776972807	5
0	7232	12585.621989892387	4
0	7234	12592.18581305347	5
0	7237	12594.679795061193	4
0	7239	12600.203380997165	3
0	7241	12601.531902879822	4
0	7244	12605.834720200384	3
0	7246	12608.284151895841	4
0	7249	12611.783274099158	5
0	7252	12612.109476454602	6
0	7255	12612.503914917315	5
0	7257	12614.207385750018	4
0	7259	12615.624534521541	3
0	7261	12624.005400879443	2
0	7263	12628.038526942367	3
0	7266	12628.419183740668	2
0	7268	12630.741493304546	1
0	7270	12663.05015422404	0
0	7272	12665.61636342092	1
0	7275	12669.712595933115	2
0	7278	12673.420664107768	1
0	7280	12673.649218560823	2
0	7283	12677.058483293877	3
0	7286	12677.303455493939	4
0	7289	12687.770457498784	5
0	7292	12697.243356016485	4
0	7294	12700.302350411786	5
0	7297	12701.520084517091	6
0	7300	12702.641490939076	5
0	7302	12709.137145077068	4
0	7304	12710.161163728954	5
0	7307	12716.986828609884	6
0	7310	12719.385053498428	5
0	7312	12720.443705975548	4
0	7314	12728.185617347027	3
0	7316	12729.521494790137	4
0	7319	12733.94062810392	5
0	7322	12735.314383519017	6
0	7325	12740.188455890229	7
0	7328	12744.517730113191	6
0	7330	12745.050313886278	7
0	7333	12749.302146674249	6
0	7335	12751.301261440342	5
0	7337	12753.798274816385	6
0	7340	12755.948896450737	5
0	7342	12760.135191325202	6
0	7345	12761.278687088469	7
0	7348	12764.605388318329	6
0	7350	12768.908117487313	7
0	7353	12769.757077364996	6
0	7355	12774.927790548682	5
0	7357	12775.155137579072	6
0	7360	12780.628644834217	7
0	7363	12783.781608464741	6
0	7365	12784.142117866712	7
0	7368	12784.9603436091	8
0	7370	12791.558715556217	7
0	7373	12794.346244269954	6
0	7375	12794.528080317896	7
0	7378	12794.896405307308	6
0	7380	12798.328665954147	7
0	7383	12799.453418268403	6
0	7385	12804.456301362793	7
0	7388	12806.811080593657	6
0	7390	12806.988234170912	7
0	7393	12808.49265738232	6
0	7395	12809.759336644806	5
0	7397	12810.192635815369	6
0	7400	12815.59949127925	5
0	7402	12818.060568446318	6
0	7405	12819.422135468413	7
0	7408	12820.234820289171	6
0	7410	12826.396358561804	5
0	7412	12832.586895574184	6
0	7415	12836.455024671335	7
0	7418	12844.612429863938	8
0	7420	12846.648359936689	9
0	7422	12848.118586681661	10
0	7424	12852.797118785531	11
0	7426	12853.777305340535	10
0	7429	12856.194800637142	11
0	7431	12862.653610585293	12
0	7433	12865.088499494913	11
0	7436	12866.352921140656	12
0	7438	12871.441450717408	11
0	7441	12873.295136500834	10
0	7444	12876.2701784645	9
0	7447	12876.623020900273	10
0	7449	12877.631247462903	11
0	7451	12878.194549481911	12
0	7453	12882.993128279975	11
0	7456	12884.17424171417	12
0	7458	12886.338935744139	11
0	7461	12898.745937302402	10
0	7464	12900.512017687617	11
0	7466	12901.177139715693	12
0	7468	12905.080694025244	13
0	7470	12911.579609111378	12
0	7473	12912.525605057505	11
0	7476	12920.456779269401	10
0	7479	12931.074880033548	9
0	7482	12932.869562821602	10
0	7484	12938.691971653367	11
0	7486	12940.099097467788	12
0	7488	12942.934716142008	11
0	7491	12944.631600262035	10
0	7494	12947.462061471988	9
0	7497	12952.41455996245	8
0	7500	12954.512954373554	7
0	7503	12963.904070777799	8
0	7505	12967.880187963541	7
0	7508	12970.381020486072	8
0	7510	12976.942405667213	7
0	7513	12980.965266282218	8
0	7515	12983.550466236379	7
0	7518	12984.16804075326	8
0	7520	12989.696718545221	7
0	7523	12991.263768014808	8
0	7525	12992.023799729138	9
0	7527	12994.570007385665	8
0	7530	12994.768585090833	9
0	7532	12997.355607349367	8
0	7535	12999.164264899074	7
0	7538	13003.93379214081	6
0	7540	13006.241956095136	5
0	7542	13006.859056205597	4
0	7544	13008.970086074712	5
0	7547	13010.907915474034	4
0	7549	13018.56289027474	3
0	7551	13023.058711607055	4
0	7554	13023.892110144984	5
0	7557	13029.483893772418	4
0	7559	13036.679982202222	3
0	7561	13039.174008175249	4
0	7564	13039.707454476103	3
0	7566	13048.449028938827	4
0	7569	13049.367766274867	3
0	7571	13051.905304162103	4
0	7574	13053.834865153876	5
0	7577	13062.095085221425	6
0	7580	13065.762989807122	7
0	7583	13069.819400954315	6
0	7585	13070.757994027395	5
0	7587	13077.668245477755	4
0	7589	13083.200669863369	5
0	7592	13085.798461735586	6
0	7595	13089.693679466084	5
0	7597	13092.486226215004	4
0	7599	13094.436496210649	5
0	7602	13098.888685261523	4
0	7604	13106.419458087652	5
0	7607	13108.848999720167	6
0	7610	13116.727543574492	7
0	7613	13117.80738409694	8
0	7615	13119.857625511561	7
0	7618	13133.559275120119	6
0	7620	13149.317963083522	5
0	7622	13150.899028713533	6
0	7625	13151.715291813387	5
0	7627	13160.394980335252	6
0	7630	13162.284379302182	5
0	7632	13162.512060074102	6
0	7635	13163.710055845925	5
0	7637	13164.340317893459	4
0	7639	13165.241949785781	5
0	7642	13168.901451695482	6
0	7645	13180.77853633396	5
0	7647	13187.618081435304	4
0	7649	13187.988492615318	3
0	7651	13188.170784930443	4
0	7654	13194.919256828132	3
0	7656	13198.045769425629	4
0	7659	13200.000155426449	5
0	7662	13200.190949986481	4
0	7664	13201.495079142385	3
0	7666	13201.80781327962	4
0	7669	13210.197705701401	3
0	7671	13210.879402539465	2
0	7673	13212.676911911608	3
0	7676	13215.419591455404	4
0	7679	13228.309767928297	3
0	7681	13231.160311474279	4
0	7684	13231.659765066239	5
0	7687	13235.055099317317	4
0	7689	13236.341512744575	5
0	7692	13237.315087872377	6
0	7695	13237.750028785059	7
0	7698	13240.954511334586	6
0	7700	13241.310956810959	5
0	7702	13242.899256862977	6
0	7705	13252.820617260231	7
0	7708	13254.321998719441	8
0	7710	13254.569081146443	7
0	7713	13256.093837103008	8
0	7715	13256.464886188543	7
0	7718	13257.264135808359	8
0	7720	13258.431495957003	9
0	7722	13261.970386856416	10
0	7724	13267.979255465042	11
0	7726	13269.222969841834	12
0	7728	13277.590463749578	13
0	7730	13283.569398187967	14
0	7732	13284.603091565071	13
0	7735	13286.746584307959	14
0	7737	13287.543787625606	15
0	7739	13287.673121862471	14
0	7742	13294.880244986507	15
0	7744	13295.463849892422	16
0	7746	13296.541452117333	17
0	7748	13312.476730052982	16
0	7751	13324.532495258808	17
0	7753	13330.639602282047	16
0	7756	13330.903180735447	17
0	7758	13338.083381444882	18
0	7760	13340.891790984887	17
0	7763	13341.84915662923	16
0	7766	13343.168028052828	15
0	7769	13345.784186456201	16
0	7771	13367.320111849316	17
0	7773	13368.973481875103	16
0	7776	13370.122277624438	15
0	7779	13372.311297141074	14
0	7782	13373.696408782161	13
0	7785	13377.159870063208	12
0	7788	13379.439570287742	11
0	7791	13380.115044997386	12
0	7793	13385.169455140559	13
0	7795	13386.887243770722	12
0	7798	13391.666695172203	11
0	7801	13393.317950780199	10
0	7804	13398.893939931809	11
0	7806	13399.291936858741	10
0	7809	13403.320039596257	9
0	7812	13411.304591469295	8
0	7815	13412.364148806019	9
0	7817	13413.936799574408	10
0	7819	13419.85966937553	9
0	7822	13425.618748926243	8
0	7825	13427.029333319375	9
0	7827	13429.806266673916	8
0	7830	13437.91343133662	7
0	7833	13439.667837452999	8
0	7835	13440.756839979031	9
0	7837	13440.967304696358	8
0	7840	13446.95325512297	9
0	7842	13447.889759039706	8
0	7845	13459.927700744862	9
0	7847	13460.334842233392	8
0	7850	13460.472327406569	9
0	7852	13462.112183288208	10
0	7854	13462.377148607634	9
0	7857	13466.948357683445	10
0	7859	13470.405736075316	9
0	7862	13470.619613709455	8
0	7865	13472.06867080432	7
0	7868	13474.800499199481	8
0	7870	13474.935881290235	9
0	7872	13477.8622222185	8
0	7875	13489.945519879737	7
0	7878	13490.744838338567	8
0	7880	13493.167821876889	7
0	7883	13495.125827023094	6
0	7885	13505.178926901443	7
0	7888	13508.459489855824	6
0	7890	13511.786653596643	5
0	7892	13513.426638393732	4
0	7894	13516.663661752844	5
0	7897	13520.298459464647	4
0	7899	13520.700231622632	3
0	7901	13524.032544702395	2
0	7903	13530.0931533761	3
0	7906	13541.166545750127	2
0	7908	13546.989441707312	3
0	7911	13549.225940737153	4
0	7914	13553.16983563591	3
0	7916	13554.413116641908	4
0	7919	13566.742263427744	5
0	7922	13567.574976423672	6
0	7925	13572.454734082043	5
0	7927	13577.086224911486	4
0	7929	13579.776833343671	3
0	7931	13597.835612139013	4
0	7934	13600.82474850224	5
0	7937	13603.310943873186	4
0	7939	13606.747675599356	5
0	7942	13618.178370695184	4
0	7944	13624.973613949211	5
0	7947	13625.149720663784	4
0	7949	13625.250224611182	3
0	7951	13632.66911578672	4
0	7954	13634.383655527256	5
0	7957	13636.748883014178	4
0	7959	13637.426938788435	3
0	7961	13640.016017305657	4
0	7964	13642.985717656824	3
0	7966	13646.26746157581	4
0	7969	13646.556919423319	3
0	7971	13650.724818911137	4
0	7974	13651.185535178067	3
0	7976	13655.845567928967	2
0	7978	13660.577400354667	3
0	7981	13663.687306271938	4
0	7984	13663.948045810332	3
0	7986	13664.762026105385	4
0	7989	13669.492141868789	3
0	7991	13673.809182832542	4
[...]
1	6649	11565.289064627935	0
1	6651	11576.311259351497	0
1	6654	11577.304580784994	0
1	6657	11577.837799374476	0
1	6660	11580.494109971245	0
1	6663	11583.029270079578	0
1	6665	11588.101736177989	0
1	6667	11601.981876345115	0
1	6669	11607.37784914808	0
1	6672	11609.178261934197	0
1	6675	11615.318777796748	0
1	6677	11616.281584516157	0
1	6680	11616.902579957802	0
1	6682	11617.766603060376	0
1	6685	11621.153073796286	0
1	6688	11625.440060144673	0
1	6690	11627.985365823751	0
1	6692	11631.254835248381	0
1	6694	11647.552909656929	0
1	6697	11652.807999968529	0
1	6700	11654.836669740391	0
1	6702	11674.508797499633	0
1	6705	11689.925172662021	0
1	6708	11691.780133343822	0
1	6710	11692.569109439507	0
1	6712	11695.836100126437	0
1	6715	11701.043043047417	0
1	6717	11704.662121625958	0
1	6720	11706.133344124784	0
1	6722	11706.845540690301	0
1	6725	11712.755320514662	0
1	6727	11718.359760191672	0
1	6730	11719.994582626401	0
1	6732	11725.67504376949	0
1	6734	11738.400013204045	0
1	6737	11739.394888004309	0
1	6740	11741.714198220192	0
1	6742	11760.167632489853	0
1	6744	11779.528091634604	0
1	6746	11781.452612662441	0
1	6749	11782.72004642901	0
1	6752	11787.294678980937	0
1	6754	11788.968726555853	0
1	6757	11793.257747074493	0
1	6760	11797.049649947277	0
1	6763	11799.993952675064	0
1	6765	11800.189278856217	0
1	6767	11801.18759788142	0
1	6770	11801.377102425012	0
1	6772	11802.342698486702	0
1	6775	11806.833056406102	0
1	6777	11806.877027420562	0
1	6779	11811.326500756681	0
1	6782	11817.03129274278	0
1	6785	11820.784688515915	0
1	6788	11834.942159341218	1
1	6790	11838.197093169145	0
1	6793	11850.503885057113	0
1	6795	11853.084277714102	0
1	6797	11862.618403020236	0
1	6800	11863.878859011414	0
1	6803	11865.164938385752	0
1	6805	11866.862486125947	0
1	6808	11870.785518648871	1
1	6810	11871.019618089879	0
1	6813	11871.125920929836	1
1	6815	11873.49995603043	2
1	6817	11874.031148893754	1
1	6820	11881.500680029678	0
1	6823	11883.716722871962	1
1	6825	11888.170479397305	0
1	6828	11893.449975818303	0
1	6830	11895.333171951825	0
1	6832	11899.474128634779	0
1	6834	11911.038194133333	0
1	6836	11916.074170484288	0
1	6838	11919.247392430311	0
1	6841	11925.838841880433	0
1	6843	11933.32304322468	0
1	6846	11935.361261869047	0
1	6849	11936.243706489305	0
1	6851	11939.185343176513	0
1	6854	11942.63385596001	0
1	6856	11943.808927936232	0
1	6858	11947.025159045711	0
1	6861	11958.979263200272	0
1	6864	11966.063012432675	0
1	6866	11987.327312976693	0
1	6868	11996.368895825423	0
1	6870	12001.265253489078	0
1	6873	12001.528968856831	0
1	6876	12003.131759542675	0
1	6878	12008.312421236824	0
1	6880	12010.255667801135	0
1	6883	12026.637550562062	0
1	6886	12030.159639890138	0
1	6889	12033.264771630548	0
1	6891	12042.090188555856	0
1	6893	12042.690104757071	0
1	6896	12052.213412352203	0
1	6898	12054.52246098868	0
1	6901	12063.740084775733	0
1	6903	12073.177008466992	0
1	6905	12077.041197352669	0
1	6908	12077.800221439038	0
1	6911	12078.237790750103	0
1	6913	12091.42625199995	0
1	6915	12102.356644057302	0
1	6918	12109.778897655414	0
1	6920	12110.79466090129	0
1	6923	12112.167459984065	0
1	6926	12117.587324363923	0
1	6928	12121.434961719708	0
1	6930	12127.117337441479	0
1	6933	12127.242887028143	0
1	6935	12128.744445579076	0
1	6938	12135.735494420771	0
1	6940	12137.394515148561	0
1	6943	12137.929105238251	0
1	6946	12138.384130178792	0
1	6948	12144.119723860915	0
1	6951	12150.365136823962	0
1	6953	12162.816450006522	0
1	6955	12170.054461210851	0
1	6958	12170.410090812958	0
1	6961	12173.416245838014	0
1	6964	12173.597942651441	0
1	6967	12190.969305783127	0
1	6969	12193.199796377063	0
1	6971	12199.688523304147	0
1	6974	12203.557462385528	0
1	6976	12206.830125595943	0
1	6979	12208.326624710171	0
1	6981	12215.078621924176	0
1	6983	12215.938663693682	0
1	6986	12217.698282877152	0
1	6989	12220.101229208942	0
1	6991	12220.61883356373	0
1	6994	12220.77806300863	0
1	6997	12221.935792793035	0
1	7000	12226.534081951866	0
1	7003	12234.403221802843	1
1	7005	12248.164723012261	0
1	7008	12249.655607229348	1
1	7010	12259.728253515653	0
1	7013	12265.352486014449	1
1	7015	12265.674033732584	0
1	7018	12268.21113520343	1
1	7020	12268.723305053476	2
1	7022	12276.692452037361	1
1	7025	12277.94394898026	0
1	7028	12280.62216685171	0
1	7030	12280.919846179926	0
1	7033	12281.797647070164	1
1	7035	12285.81234163653	0
1	7038	12299.990719732212	1
1	7040	12301.675138421049	2
1	7042	12303.868080304262	1
1	7045	12304.876754475063	0
1	7048	12307.053727542086	1
1	7050	12307.8686089554	2
1	7052	12308.818447570831	3
1	7054	12309.162647621656	4
1	7056	12313.475482779849	3
1	7059	12314.330186494672	4
1	7061	12315.913491885318	3
1	7064	12323.206164909051	2
1	7067	12329.513790069132	1
1	7070	12333.003448352943	2
1	7072	12336.742909617383	1
1	7075	12340.933469596508	0
1	7078	12343.646995851408	0
1	7080	12346.920863045149	0
1	7083	12349.121504527305	0
1	7085	12355.007137780899	0
1	7088	12359.24585370662	0
1	7090	12365.510318407859	0
1	7092	12365.5275603451	0
1	7095	12368.561254390362	0
1	7097	12383.936658211451	0
1	7100	12384.411456910993	0
1	7103	12389.63662397106	0
1	7105	12392.457652100239	0
1	7108	12397.711566541392	1
1	7110	12399.508974272452	2
1	7112	12405.387832089819	1
1	7115	12406.072880608877	0
1	7118	12409.736810891786	1
1	7120	12410.561094930875	0
1	7123	12410.877532075475	0
1	7125	12412.434574639402	0
1	7127	12426.072700956557	0
1	7129	12426.988447580517	0
1	7132	12432.931978746436	0
1	7134	12433.959035327697	0
1	7137	12437.817141488335	0
1	7140	12446.743113399399	0
1	7143	12447.237876661114	1
1	7145	12455.91549627454	2
1	7147	12456.032585902015	1
1	7150	12457.611475095361	2
1	7152	12467.02305202171	1
1	7155	12468.712969971833	0
1	7158	12469.908776080956	0
1	7160	12470.493243220621	0
1	7162	12477.011297432773	0
1	7165	12477.105048284412	0
1	7167	12486.242766869463	0
1	7170	12490.215257655549	0
1	7172	12492.0917825452	0
1	7175	12493.55417814199	0
1	7178	12493.686975414445	0
1	7180	12496.379792120668	0
1	7183	12498.609582665308	0
1	7185	12498.916814368334	0
1	7187	12501.083493035651	0
1	7189	12505.686600002403	0
1	7192	12518.10230606313	0
1	7195	12518.471827191599	0
1	7197	12519.57786931896	0
1	7200	12525.991435192972	0
1	7202	12528.677372922993	0
1	7205	12537.869433982053	0
1	7208	12541.105905456718	0
1	7210	12541.44508008363	0
1	7213	12551.923848321347	1
1	7215	12561.988571871878	2
1	7217	12564.774205859001	1
1	7220	12567.153743528864	0
1	7223	12569.295999227967	0
1	7225	12569.356722648288	0
1	7227	12569.653088579448	0
1	7229	12584.10776972807	0
1	7232	12585.621989892387	0
1	7234	12592.18581305347	0
1	7237	12594.679795061193	0
1	7239	12600.203380997165	0
1	7241	12601.531902879822	0
1	7244	12605.834720200384	0
1	7246	12608.284151895841	0
1	7249	12611.783274099158	0
1	7252	12612.109476454602	0
1	7255	12612.503914917315	0
1	7257	12614.207385750018	0
1	7259	12615.624534521541	0
1	7261	12624.005400879443	0
1	7263	12628.038526942367	0
1	7266	12628.419183740668	0
1	7268	12630.741493304546	0
1	7270	12663.05015422404	0
1	7272	12665.61636342092	0
1	7275	12669.712595933115	0
1	7278	12673.420664107768	0
1	7280	12673.649218560823	0
1	7283	12677.058483293877	0
1	7286	12677.303455493939	0
1	7289	12687.770457498784	0
1	7292	12697.243356016485	0
1	7294	12700.302350411786	0
1	7297	12701.520084517091	0
1	7300	12702.641490939076	0
1	7302	12709.137145077068	0
1	7304	12710.161163728954	0
1	7307	12716.986828609884	0
1	7310	12719.385053498428	0
1	7312	12720.443705975548	0
1	7314	12728.185617347027	0
1	7316	12729.521494790137	0
1	7319	12733.94062810392	0
1	7322	12735.314383519017	0
1	7325	12740.188455890229	0
1	7328	12744.517730113191	0
1	7330	12745.050313886278	0
1	7333	12749.302146674249	0
1	7335	12751.301261440342	0
1	7337	12753.798274816385	0
1	7340	12755.948896450737	0
1	7342	12760.135191325202	0
1	7345	12761.278687088469	0
1	7348	12764.605388318329	0
1	7350	12768.908117487313	0
1	7353	12769.757077364996	0
1	7355	12774.927790548682	0
1	7357	12775.155137579072	0
1	7360	12780.628644834217	0
1	7363	12783.781608464741	0
1	7365	12784.142117866712	0
1	7368	12784.9603436091	1
1	7370	12791.558715556217	0
1	7373	12794.346244269954	0
1	7375	12794.528080317896	0
1	7378	12794.896405307308	0
1	7380	12798.328665954147	0
1	7383	12799.453418268403	0
1	7385	12804.456301362793	0
1	7388	12806.811080593657	0
1	7390	12806.988234170912	0
1	7393	12808.49265738232	0
1	7395	12809.759336644806	0
1	7397	12810.192635815369	0
1	7400	12815.59949127925	0
1	7402	12818.060568446318	0
1	7405	12819.422135468413	0
1	7408	12820.234820289171	0
1	7410	12826.396358561804	0
1	7412	12832.586895574184	0
1	7415	12836.455024671335	0
1	7418	12844.612429863938	1
1	7420	12846.648359936689	2
1	7422	12848.118586681661	3
1	7424	12852.797118785531	4
1	7426	12853.777305340535	3
1	7429	12856.194800637142	4
1	7431	12862.653610585293	5
1	7433	12865.088499494913	4
1	7436	12866.352921140656	5
1	7438	12871.441450717408	4
1	7441	12873.295136500834	3
1	7444	12876.2701784645	2
1	7447	12876.623020900273	3
1	7449	12877.631247462903	4
1	7451	12878.194549481911	5
1	7453	12882.993128279975	4
1	7456	12884.17424171417	5
1	7458	12886.338935744139	4
1	7461	12898.745937302402	3
1	7464	12900.512017687617	4
1	7466	12901.177139715693	5
1	7468	12905.080694025244	6
1	7470	12911.579609111378	5
1	7473	12912.525605057505	4
1	7476	12920.456779269401	3
1	7479	12931.074880033548	2
1	7482	12932.869562821602	3
1	7484	12938.691971653367	4
1	7486	12940.099097467788	5
1	7488	12942.934716142008	4
1	7491	12944.631600262035	3
1	7494	12947.462061471988	2
1	7497	12952.41455996245	1
1	7500	12954.512954373554	0
1	7503	12963.904070777799	1
1	7505	12967.880187963541	0
1	7508	12970.381020486072	1
1	7510	12976.942405667213	0
1	7513	12980.965266282218	1
1	7515	12983.550466236379	0
1	7518	12984.16804075326	1
1	7520	12989.696718545221	0
1	7523	12991.263768014808	1
1	7525	12992.023799729138	2
1	7527	12994.570007385665	1
1	7530	12994.768585090833	2
1	7532	12997.355607349367	1
1	7535	12999.164264899074	0
1	7538	13003.93379214081	0
1	7540	13006.241956095136	0
1	7542	13006.859056205597	0
1	7544	13008.970086074712	0
1	7547	13010.907915474034	0
1	7549	13018.56289027474	0
1	7551	13023.058711607055	0
1	7554	13023.892110144984	0
1	7557	13029.483893772418	0
1	7559	13036.679982202222	0
1	7561	13039.174008175249	0
1	7564	13039.707454476103	0
1	7566	13048.449028938827	0
1	7569	13049.367766274867	0
1	7571	13051.905304162103	0
1	7574	13053.834865153876	0
1	7577	13062.095085221425	0
1	7580	13065.762989807122	0
1	7583	13069.819400954315	0
1	7585	13070.757994027395	0
1	7587	13077.668245477755	0
1	7589	13083.200669863369	0
1	7592	13085.798461735586	0
1	7595	13089.693679466084	0
1	7597	13092.486226215004	0
1	7599	13094.436496210649	0
1	7602	13098.888685261523	0
1	7604	13106.419458087652	0
1	7607	13108.848999720167	0
1	7610	13116.727543574492	0
1	7613	13117.80738409694	1
1	7615	13119.857625511561	0
1	7618	13133.559275120119	0
1	7620	13149.317963083522	0
1	7622	13150.899028713533	0
1	7625	13151.715291813387	0
1	7627	13160.394980335252	0
1	7630	13162.284379302182	0
1	7632	13162.512060074102	0
1	7635	13163.710055845925	0
1	7637	13164.340317893459	0
1	7639	13165.241949785781	0
1	7642	13168.901451695482	0
1	7645	13180.77853633396	0
1	7647	13187.618081435304	0
1	7649	13187.988492615318	0
1	7651	13188.170784930443	0
1	7654	13194.919256828132	0
1	7656	13198.045769425629	0
1	7659	13200.000155426449	0
1	7662	13200.190949986481	0
1	7664	13201.495079142385	0
1	7666	13201.80781327962	0
1	7669	13210.197705701401	0
1	7671	13210.879402539465	0
1	7673	13212.676911911608	0
1	7676	13215.419591455404	0
1	7679	13228.309767928297	0
1	7681	13231.160311474279	0
1	7684	13231.659765066239	0
1	7687	13235.055099317317	0
1	7689	13236.341512744575	0
1	7692	13237.315087872377	0
1	7695	13237.750028785059	0
1	7698	13240.954511334586	0
1	7700	13241.310956810959	0
1	7702	13242.899256862977	0
1	7705	13252.820617260231	0
1	7708	13254.321998719441	1
1	7710	13254.569081146443	0
1	7713	13256.093837103008	1
1	7715	13256.464886188543	0
1	7718	13257.264135808359	1
1	7720	13258.431495957003	2
1	7722	13261.970386856416	3
1	7724	13267.979255465042	4
1	7726	13269.222969841834	5
1	7728	13277.590463749578	6
1	7730	13283.569398187967	7
1	7732	13284.603091565071	6
1	7735	13286.746584307959	7
1	7737	13287.543787625606	8
1	7739	13287.673121862471	7
1	7742	13294.880244986507	8
1	7744	13295.463849892422	9
1	7746	13296.541452117333	10
1	7748	13312.476730052982	9
1	7751	13324.532495258808	10
1	7753	13330.639602282047	9
1	7756	13330.903180735447	10
1	7758	13338.083381444882	11
1	7760	13340.891790984887	10
1	7763	13341.84915662923	9
1	7766	13343.168028052828	8
1	7769	13345.784186456201	9
1	7771	13367.320111849316	10
1	7773	13368.973481875103	9
1	7776	13370.122277624438	8
1	7779	13372.311297141074	7
1	7782	13373.696408782161	6
1	7785	13377.159870063208	5
1	7788	13379.439570287742	4
1	7791	13380.115044997386	5
1	7793	13385.169455140559	6
1	7795	13386.887243770722	5
1	7798	13391.666695172203	4
1	7801	13393.317950780199	3
1	7804	13398.893939931809	4
1	7806	13399.291936858741	3
1	7809	13403.320039596257	2
1	7812	13411.304591469295	1
1	7815	13412.364148806019	2
1	7817	13413.936799574408	3
1	7819	13419.85966937553	2
1	7822	13425.618748926243	1
1	7825	13427.029333319375	2
1	7827	13429.806266673916	1
1	7830	13437.91343133662	0
1	7833	13439.667837452999	1
1	7835	13440.756839979031	2
1	7837	13440.967304696358	1
1	7840	13446.95325512297	2
1	7842	13447.889759039706	1
1	7845	13459.927700744862	2
1	7847	13460.334842233392	1
1	7850	13460.472327406569	2
1	7852	13462.112183288208	3
1	7854	13462.377148607634	2
1	7857	13466.948357683445	3
1	7859	13470.405736075316	2
1	7862	13470.619613709455	1
1	7865	13472.06867080432	0
1	7868	13474.800499199481	1
1	7870	13474.935881290235	2
1	7872	13477.8622222185	1
1	7875	13489.945519879737	0
1	7878	13490.744838338567	1
1	7880	13493.167821876889	0
1	7883	13495.125827023094	0
1	7885	13505.178926901443	0
1	7888	13508.459489855824	0
1	7890	13511.786653596643	0
1	7892	13513.426638393732	0
1	7894	13516.663661752844	0
1	7897	13520.298459464647	0
1	7899	13520.700231622632	0
1	7901	13524.032544702395	0
1	7903	13530.0931533761	0
1	7906	13541.166545750127	0
1	7908	13546.989441707312	0
1	7911	13549.225940737153	0
1	7914	13553.16983563591	0
1	7916	13554.413116641908	0
1	7919	13566.742263427744	0
1	7922	13567.574976423672	0
1	7925	13572.454734082043	0
1	7927	13577.086224911486	0
1	7929	13579.776833343671	0
1	7931	13597.835612139013	0
1	7934	13600.82474850224	0
1	7937	13603.310943873186	0
1	7939	13606.747675599356	0
1	7942	13618.178370695184	0
1	7944	13624.973613949211	0
1	7947	13625.149720663784	0
1	7949	13625.250224611182	0
1	7951	13632.66911578672	0
1	7954	13634.383655527256	0
1	7957	13636.748883014178	0
1	7959	13637.426938788435	0
1	7961	13640.016017305657	0
1	7964	13642.985717656824	0
1	7966	13646.26746157581	0
1	7969	13646.556919423319	0
1	7971	13650.724818911137	0
1	7974	13651.185535178067	0
1	7976	13655.845567928967	0
1	7978	13660.577400354667	0
1	7981	13663.687306271938	0
1	7984	13663.948045810332	0
1	7986	13664.762026105385	0
1	7989	13669.492141868789	0
1	7991	13673.809182832542	0
1	7994	13676.217287142454	0
1	7996	13676.958737592845	0
1	7999	13681.14202895647	0
1	8002	13682.040868226654	0
1	8005	13682.128149466957	0
1	8008	13683.033508295894	0
1	8010	13689.159091590786	0
1	8013	13694.274868646798	0
1	8015	13700.157412946003	0
1	8018	13702.890026596176	0
1	8020	13710.86387765983	0
1	8023	13715.535295802006	0
1	8025	13717.136428429226	0
1	8028	13718.292004195688	1
1	8030	13719.918160048992	0
1	8033	13727.229376301738	0
1	8035	13737.963384710132	0
1	8038	13746.501967303587	0
1	8040	13747.13636348736	0
1	8042	13748.96767737933	0
1	8044	13753.99234153329	0
1	8047	13754.098581984146	0
1	8049	13754.711879973366	0
1	8051	13755.986886505637	0
1	8053	13765.738151425784	0
1	8056	13776.931085606768	0
1	8058	13789.465530485008	0
1	8060	13791.755733839417	0
1	8062	13795.750310542889	0
1	8065	13796.582599201942	0
1	8068	13797.575917153659	0
1	8071	13798.805868187516	0
1	8073	13801.078145366635	0
1	8076	13807.071195601461	0
1	8079	13818.185872376503	0
1	8082	13819.112427380389	0
1	8085	13821.224045640849	0
1	8088	13825.109171710195	0
1	8090	13826.096887792285	0
1	8092	13829.541561269487	0
1	8095	13832.208937785277	0
1	8097	13833.434621082415	0
1	8100	13858.854495688266	0
1	8102	13859.325028367176	0
1	8105	13867.308245785176	0
1	8107	13874.822383961671	0
1	8110	13874.911601705799	0
1	8113	13878.140556070979	0
1	8115	13878.92245765688	0
1	8118	13884.110070801557	1
1	8120	13887.89014706875	2
1	8122	13889.908874625652	1
1	8125	13890.088128361757	2
1	8127	13906.329821357823	1
1	8130	13914.05691160078	0
1	8133	13916.477238779402	0
1	8135	13924.80004100323	0
1	8137	13925.49285721224	0
1	8140	13926.618095957106	0
1	8142	13933.970812081491	0
1	8144	13935.753917773501	0
1	8147	13939.187573633645	0
1	8150	13943.205654270398	0
1	8153	13946.368773198317	1
1	8155	13949.128912444599	0
1	8158	13952.894489067061	1
1	8160	13955.759919733855	0
1	8163	13956.076933402186	0
1	8165	13962.616225244213	0
1	8167	13965.863994048983	0
1	8169	13967.71616879902	0
1	8172	13967.840230123129	0
1	8174	13970.549827815801	0
1	8177	13972.044245637799	0
1	8179	13972.293931230053	0
1	8182	13978.630268740139	0
1	8184	13981.101754755226	0
1	8186	13987.028937405982	0
1	8189	13991.448305464974	0
1	8192	13996.147270765677	0
1	8194	13997.472872327397	0
1	8197	13998.618547273592	0
1	8200	13999.080309400416	0
1	8203	14001.997535561094	1
1	8205	14003.658815208638	0
1	8208	14003.870334826601	0
1	8210	14013.205651767586	0
1	8212	14017.872211490513	0
1	8214	14020.17888450479	0
1	8216	14023.752608872622	0
1	8219	14023.765670442853	0
1	8221	14025.008716818981	0
1	8223	14026.049392340494	0
1	8226	14029.276330957127	0
1	8228	14031.510233404831	0
1	8230	14035.138422479086	0
1	8233	14041.642393151364	0
1	8236	14044.155102249944	0
1	8238	14044.630334203334	0
1	8241	14057.504362313972	0
1	8244	14061.452322256117	0
1	8247	14063.338371811863	0
1	8249	14069.843140444421	0
1	8251	14072.394136544845	0
1	8253	14073.240562789905	0
1	8256	14073.922465128475	0
1	8259	14081.894578952217	0
1	8262	14082.551182736194	0
1	8264	14086.245308551423	0
1	8266	14086.920129568275	0
1	8268	14087.420080618087	0
1	8271	14093.161669805791	0
1	8274	14094.528462323556	0
1	8276	14108.758490161131	0
1	8279	14111.13058502944	0
1	8281	14112.615094865692	0
1	8284	14114.816450732934	0
1	8287	14117.252075504345	0
1	8289	14122.548017583428	0
1	8291	14123.072849314325	0
1	8293	14136.061255172004	0
1	8295	14145.428167213053	0
1	8297	14147.400804688406	0
1	8300	14149.024256164079	0
1	8302	14150.531034152388	0
1	8305	14172.10138195842	0
1	8308	14173.712525027212	0
1	8311	14174.309109918984	0
1	8313	14182.39532999322	0
1	8316	14189.632859512339	0
1	8319	14194.308335383546	0
1	8321	14195.98782957543	0
1	8324	14198.132809858762	0
1	8327	14201.083924517098	0
1	8330	14204.045104940749	0
1	8333	14215.188860135796	1
1	8335	14215.971082439914	0
1	8338	14218.371757072727	0
1	8340	14221.528525439527	0
1	8343	14225.292353559455	0
1	8345	14226.140825742639	0
1	8348	14230.37310846536	1
1	8350	14232.041503303302	2
1	8352	14235.561581857129	3
1	8354	14242.719831074357	2
1	8357	14248.440239574784	1
1	8360	14250.388406518024	2
1	8362	14255.70265265526	3
1	8364	14258.063572212237	2
1	8367	14260.334723020348	1
1	8370	14263.767402671148	2
1	8372	14280.567773539528	1
1	8375	14282.107842750193	0
1	8378	14282.364496110297	0
1	8380	14296.334043198071	0
1	8382	14296.613962860008	0
1	8385	14297.348076956916	0
1	8387	14298.732110408842	0
1	8389	14299.323459227267	0
1	8392	14302.496209987275	0
1	8394	14308.020443125547	0
1	8397	14308.320720923305	0
1	8400	14313.411919407893	0
1	8402	14315.241044143094	0
1	8405	14316.167205434196	0
1	8408	14328.033740518836	1
1	8410	14336.721722491623	2
1	8412	14339.605660253894	3
1	8414	14342.938664020246	4
1	8416	14346.062783005069	3
1	8419	14351.839311867017	2
1	8422	14356.343217471029	3
1	8424	14379.711949157004	2
1	8427	14382.470552538306	3
1	8429	14390.25148927872	2
1	8432	14391.21225460661	1
1	8435	14396.029655748	2
1	8437	14398.445635100074	1
1	8440	14399.041839463641	2

