version 2
run General-6-20191211-23:49:40-6374
attr configname General
attr datetime 20191211-23:49:40
attr experiment General
attr inifile omnetpp.ini
attr iterationvars ""
attr iterationvarsf ""
attr measurement ""
attr network Carrefour
attr processid 6374
attr repetition 6
attr replication #6
attr resultdir results
attr runnumber 6
attr seedset 6
param **.tillsNumber 7
param **.delta 0s
param **.policy 1
param **.capacity 0.3
param **.meanInterArrivalTime 8s
param **.meanItemsInACart 12
param **.interArrivalDistribution 0
param **.itemsInCartDistribution 0

vector 0 Carrefour.decider stats_numCustomers:vector ETV
attr "" ""
attr source numCustomers
vector 1 Carrefour.decider stats_numCustomersQueue:vector ETV
attr "" ""
attr source numCustomersQueue
0	749	1200.234370042036	5
0	752	1211.702796884315	6
0	755	1212.313268078563	7
0	758	1216.060392972145	8
0	760	1217.566691336446	7
0	763	1219.619719615419	6
0	765	1220.588284586632	5
0	767	1223.294350675432	6
0	770	1224.926717166531	5
0	772	1228.35409983269	4
0	774	1229.564434948835	5
0	777	1229.817607597349	6
0	780	1236.573420298633	5
0	782	1237.144866233714	4
0	784	1254.536389288912	5
0	787	1259.455826964628	4
0	789	1263.291537343555	5
0	792	1264.400080142667	6
0	795	1265.758614515477	5
0	797	1272.515400044365	6
0	800	1272.660515954593	7
0	803	1273.613828222152	6
0	805	1281.041731937366	5
0	807	1287.733811377924	4
0	809	1288.531540104102	5
0	812	1295.149306439618	6
0	815	1296.810280473805	5
0	817	1300.671913008969	4
0	819	1302.597099683092	3
0	821	1317.877989194005	4
0	824	1320.074406918189	3
0	826	1321.316211223399	4
0	829	1326.035552220508	5
0	832	1334.300594754876	6
0	835	1343.168868724412	7
0	838	1343.308124128047	6
0	840	1345.816772104792	7
0	843	1353.547050459266	6
0	845	1359.420062808919	5
0	847	1362.910471754906	4
0	849	1366.467834067628	5
0	852	1367.024056671696	4
0	854	1370.89848348187	5
0	857	1377.934754382522	4
0	859	1378.495590194094	3
0	861	1378.627027411353	4
0	864	1382.444226105367	5
0	867	1385.560004320814	6
0	870	1386.668514661855	7
0	873	1389.747655855495	8
0	875	1392.103788168903	7
0	878	1393.885895054359	6
0	880	1397.144796588476	7
0	883	1399.080653230108	6
0	885	1399.901149311319	7
0	888	1400.498977528521	8
0	890	1403.318708399777	7
0	893	1404.627576034954	6
0	895	1408.477734195677	5
0	897	1425.749458441818	6
0	900	1429.343158397657	7
0	903	1432.08383215427	6
0	905	1433.509605095742	7
0	908	1438.360783151161	8
0	910	1443.317735845981	7
0	913	1447.947860785892	6
0	915	1448.675278905201	5
0	917	1461.793723399422	6
0	920	1472.313423859474	5
0	922	1473.61774540513	4
0	924	1477.778149442085	3
0	926	1480.433951826745	4
0	929	1483.699218082889	3
0	931	1484.129685063078	2
0	933	1496.003904790865	3
0	936	1498.515826429732	4
0	939	1507.857665055836	5
0	942	1508.622876197002	6
0	945	1508.649223245263	7
0	948	1509.514651502574	6
0	950	1517.264504173305	5
0	952	1518.166470343361	6
0	955	1521.584431174715	5
0	957	1523.426402179355	4
0	959	1526.882024699547	3
0	961	1527.664117119394	2
0	963	1535.848249719561	1
0	965	1536.595435011298	2
0	968	1545.93422149726	3
0	971	1558.48895002112	2
0	973	1566.126549251609	3
0	976	1566.516510883699	4
0	979	1566.563925983702	5
0	982	1567.831225231249	4
0	984	1569.632906352824	5
0	987	1577.8714075475	6
0	990	1597.578130218704	7
0	993	1601.287767960758	6
0	995	1601.470017228505	7
0	998	1608.524315415873	6
0	1000	1613.756324349795	5
0	1002	1618.121328858066	6
0	1005	1622.951321018455	5
0	1007	1625.366942694799	6
0	1010	1631.332658459294	7
0	1013	1634.318920427139	6
0	1015	1636.470029682952	5
0	1017	1638.88209898009	6
0	1020	1641.037397109485	7
0	1023	1644.346439288155	6
0	1025	1645.302721376694	5
0	1027	1648.360110419667	6
0	1030	1649.491647904688	7
0	1033	1651.680819983195	6
0	1035	1652.48668240234	7
0	1038	1658.822654454737	8
0	1040	1659.402133366544	9
0	1042	1675.955694976529	10
0	1044	1688.860621558451	11
0	1046	1690.606103916644	10
0	1049	1692.342016699334	9
0	1052	1696.352313046126	8
0	1055	1697.218797128877	9
0	1057	1700.761167781992	8
0	1060	1712.54403456753	7
0	1063	1714.024065303672	6
0	1065	1716.610859830818	7
0	1068	1716.879180220628	6
0	1070	1719.209584233434	5
0	1072	1721.118094196975	6
0	1075	1722.850165346161	7
0	1078	1724.238664933464	6
0	1080	1727.062176746478	7
0	1083	1728.954111034857	8
0	1085	1729.861863982342	7
0	1088	1730.224148991935	6
0	1090	1734.885539232013	5
0	1092	1739.477927892227	4
0	1094	1741.298767220303	5
0	1097	1743.058758639984	4
0	1099	1744.639202086292	3
0	1101	1745.090099406563	4
0	1104	1747.531310604048	5
0	1107	1750.100989046346	4
0	1109	1751.655968765278	5
0	1112	1754.289722541681	6
0	1115	1754.507970729405	5
0	1117	1755.473221480785	4
0	1119	1759.597196522497	3
0	1121	1766.650668846179	2
0	1123	1771.60467903588	3
0	1126	1771.791221005185	4
0	1129	1773.597941919514	5
0	1132	1781.003764456748	4
0	1134	1781.976965189902	3
0	1136	1782.52717616812	4
0	1139	1786.871416523734	5
0	1142	1788.107644799308	6
0	1145	1789.483921440055	5
0	1147	1795.637325267749	4
0	1149	1796.459709829917	5
0	1152	1796.668337658277	4
0	1154	1797.147257050434	5
0	1157	1802.880924906653	6
0	1160	1804.636272761968	5
0	1162	1804.825730519096	4
0	1164	1808.889853942918	3
0	1166	1811.777719437553	4
0	1169	1815.027432347966	5
0	1172	1817.416190234629	4
0	1174	1825.753808449272	5
0	1177	1828.36537092935	4
0	1179	1837.811510437324	5
0	1182	1841.72189778394	4
0	1184	1845.16104960323	5
0	1187	1846.325281219111	6
0	1190	1846.761260127669	7
0	1193	1848.463942776259	8
0	1195	1851.150702948682	9
0	1197	1854.171526605772	8
0	1200	1855.271904552098	9
0	1202	1855.40913081298	8
0	1205	1855.985641498775	7
0	1208	1862.81346740051	6
0	1210	1866.300176915754	7
0	1213	1878.66604228794	8
0	1215	1882.824978467281	7
0	1218	1882.954158247414	8
0	1220	1884.615754590281	7
0	1223	1885.296339076948	8
0	1225	1886.47281955024	9
0	1227	1887.400465996958	10
0	1229	1887.663097555468	9
0	1232	1892.949471556535	10
0	1234	1897.501628677909	9
0	1237	1898.033169656472	8
0	1240	1903.070396556732	7
0	1243	1903.348442670513	6
0	1245	1910.760462825833	5
0	1247	1914.301186439354	6
0	1250	1915.643160974027	7
0	1253	1916.72410597448	8
0	1255	1917.359203054785	9
0	1257	1924.790268290513	10
0	1259	1945.234680026945	11
0	1261	1947.975976540722	12
0	1263	1949.483771242741	13
0	1265	1952.742438216487	12
0	1268	1953.629214927722	11
0	1271	1956.952312377141	10
0	1274	1957.36309899723	11
0	1276	1960.336836697727	10
0	1279	1963.054711704706	11
0	1281	1967.870838619576	10
0	1284	1969.569356995985	9
0	1287	1971.67286800024	10
0	1289	1973.409635556982	11
0	1291	1973.788448593447	10
0	1294	1973.970665076082	11
0	1296	1980.175273780363	12
0	1298	1983.4781996826	11
0	1301	1983.688809004139	12
0	1303	1988.837591714245	11
0	1306	1996.5830589405	12
0	1308	1999.843486214604	13
0	1310	2001.488159171561	14
0	1312	2003.051475515883	15
0	1314	2006.059082235776	16
0	1316	2006.123366568244	17
0	1318	2006.807740836238	18
0	1320	2006.89168696854	19
0	1322	2014.488480173971	20
0	1324	2016.697428007464	19
0	1327	2021.768142921795	20
0	1329	2024.998982024323	21
0	1331	2025.706471829648	22
0	1333	2033.915345040712	21
0	1336	2034.08936921254	20
0	1339	2040.346570284988	19
0	1342	2040.355660366192	18
0	1345	2042.412530017155	17
0	1348	2044.366167323448	18
0	1350	2044.504316235563	17
0	1353	2044.690589179377	16
0	1356	2046.325412599865	15
0	1359	2047.400666898835	16
0	1361	2050.683368339161	15
0	1364	2054.011009180709	16
0	1366	2055.364060571629	15
0	1369	2061.081134383122	14
0	1372	2066.544248857785	13
0	1375	2072.976166541151	12
0	1378	2077.360034452474	11
0	1381	2077.976580235949	10
0	1384	2079.802630040493	9
0	1387	2081.703259716981	10
0	1389	2083.189940798234	9
0	1392	2085.971996006176	10
0	1394	2095.849476002088	9
0	1397	2095.984311761029	8
0	1400	2098.798502947452	7
0	1403	2099.79450839166	6
0	1405	2102.517322433801	7
0	1408	2104.791895882643	8
0	1410	2114.066717927848	7
0	1413	2121.685445369251	6
0	1415	2124.306834680139	7
0	1418	2130.944580530868	6
0	1420	2136.634303341084	5
0	1422	2137.696586632426	4
0	1424	2137.979034467787	3
0	1426	2139.61138229477	4
0	1429	2141.101038375552	5
0	1432	2141.319692070349	4
0	1434	2147.916847224186	5
0	1437	2150.964680788246	6
0	1440	2159.203341606792	7
0	1443	2161.417597682081	8
0	1445	2165.087479641309	7
0	1448	2166.241281336306	6
0	1450	2168.033911266468	5
0	1452	2175.896319410161	4
0	1454	2176.379217734116	3
0	1456	2180.652390886547	2
0	1458	2180.93822371508	3
0	1461	2186.339974127275	4
0	1464	2193.674656379001	5
0	1467	2193.861369786011	4
0	1469	2199.955763426799	5
0	1472	2203.948012511531	4
0	1474	2207.103175784487	3
0	1476	2207.144536288004	4
0	1479	2211.304199042146	5
0	1482	2219.526059557529	6
0	1485	2221.680086694589	5
0	1487	2222.485518373571	4
0	1489	2223.115639104581	3
0	1491	2225.384166024429	2
0	1493	2229.023126956248	1
0	1495	2230.377158016261	2
0	1498	2235.583343551171	3
0	1501	2243.839942413268	4
0	1504	2257.321587167854	5
0	1507	2259.494183535959	4
0	1509	2263.924278854546	3
0	1511	2265.936628721778	4
0	1514	2271.559466465388	5
0	1517	2272.85231479243	6
0	1520	2272.855693371754	7
0	1523	2280.780471275114	6
0	1525	2282.982851335278	5
0	1527	2283.837469916937	6
0	1530	2284.075851557761	7
0	1533	2287.290823261218	6
0	1535	2292.281295147772	7
0	1538	2295.14715304492	6
0	1540	2297.353202660051	5
0	1542	2306.39670509567	4
0	1544	2311.963708423778	5
0	1547	2312.340661043647	4
0	1549	2314.796916710442	5
0	1552	2316.216275524142	6
0	1555	2319.382272492307	5
0	1557	2319.986908636078	6
0	1560	2322.003658950126	5
0	1562	2322.065366326796	6
0	1565	2325.188340059213	5
0	1567	2334.702575052778	4
0	1569	2350.155217389245	3
0	1571	2357.878077731114	4
0	1574	2359.592342112512	3
0	1576	2368.604717235059	2
0	1578	2373.674227822485	1
0	1580	2376.40332774874	2
0	1583	2378.969615881867	1
0	1585	2379.783342279542	2
0	1588	2381.622767438777	1
0	1590	2390.918482929624	0
0	1592	2406.526686677588	1
0	1595	2409.892677155431	2
0	1598	2412.127718924705	1
0	1600	2419.017473834873	2
0	1603	2426.625638056725	3
0	1606	2431.060766089946	4
0	1609	2438.767671973871	5
0	1612	2450.977046193434	4
0	1614	2458.54810131064	5
0	1617	2458.655648343237	6
0	1620	2465.980204746027	5
0	1622	2493.439803690198	4
0	1624	2493.733542040191	5
0	1627	2499.482138299953	4
0	1629	2500.568201255253	5
0	1632	2508.108854840261	6
0	1635	2513.96228900664	5
0	1637	2514.046862266309	4
0	1639	2520.137935202464	5
0	1642	2520.200786388424	4
0	1644	2521.632540932605	5
0	1647	2545.57955437008	6
0	1650	2548.002998429153	7
0	1653	2553.251496620923	6
0	1655	2557.714703503714	7
0	1658	2558.347570717704	6
0	1660	2558.539707519037	7
0	1663	2559.527955320775	8
0	1665	2562.726033517513	7
0	1668	2565.465657224519	8
0	1670	2567.730944840049	9
0	1672	2568.709397741921	10
0	1674	2573.05258960171	11
0	1676	2591.254685412479	12
0	1678	2592.411521311094	11
0	1681	2598.080659628304	10
0	1684	2599.252749965616	11
0	1686	2601.284226260009	12
0	1688	2602.086946960647	13
0	1690	2604.483885962152	12
0	1693	2607.820552647194	13
0	1695	2611.778979489619	14
0	1697	2614.704116637405	15
0	1699	2617.812598119128	16
0	1701	2618.549654405026	17
0	1703	2618.560679898299	16
0	1706	2618.987485184945	15
0	1709	2638.991927107142	14
0	1712	2646.963573972454	15
0	1714	2647.805495783556	16
0	1716	2653.879077228954	15
0	1719	2663.30854737923	14
0	1722	2664.809747456649	13
0	1725	2665.205516484444	12
0	1728	2675.642845968977	13
0	1730	2675.715827268318	14
0	1732	2686.598281945525	15
0	1734	2687.044184301999	14
0	1737	2688.25028716423	13
0	1740	2690.224148222804	12
0	1743	2694.98782791608	13
0	1745	2695.905028479517	12
0	1748	2696.050842417678	11
0	1751	2700.821161934596	12
0	1753	2706.272531523057	11
0	1756	2711.201220635944	10
0	1759	2712.741662365124	9
0	1762	2720.266906727154	8
0	1765	2727.477161170741	7
0	1768	2728.214884684706	6
0	1770	2737.33511918347	7
0	1773	2738.772726777122	8
0	1775	2738.867849712791	9
0	1777	2743.239778568518	8
0	1780	2743.395842829719	7
0	1783	2751.248983343624	6
0	1785	2758.582654167399	5
0	1787	2762.735365752084	6
0	1790	2765.355389118564	5
0	1792	2766.587355118777	6
0	1795	2780.707150726666	5
0	1797	2781.075205582457	4
0	1799	2786.977895679306	5
0	1802	2787.65122788596	4
0	1804	2789.269778624159	5
0	1807	2793.126049859145	4
0	1809	2806.405129476654	5
0	1812	2808.179048026613	6
0	1815	2808.598145267762	7
0	1818	2821.638894824247	6
0	1820	2827.310711777734	5
0	1822	2830.230597732806	4
0	1824	2830.547447522578	5
0	1827	2839.618698417737	4
0	1829	2842.478561206575	5
0	1832	2842.901379388391	6
0	1835	2843.796837204145	7
0	1838	2846.390179006529	6
0	1840	2847.996997585824	5
0	1842	2855.364865979964	6
0	1845	2866.834162772021	5
0	1847	2874.229299119763	6
0	1850	2875.182546445973	5
0	1852	2875.280627210529	4
0	1854	2875.620537692798	5
0	1857	2882.712189327235	6
0	1860	2882.985650248667	5
0	1862	2885.564423836998	6
0	1865	2893.312482029226	5
0	1867	2893.907586289178	4
0	1869	2917.88433133593	3
0	1871	2921.007277057486	4
0	1874	2923.057894454524	3
0	1876	2924.305775398508	4
0	1879	2925.003362744424	3
0	1881	2928.783960830451	4
0	1884	2931.056079123086	3
0	1886	2931.441307427846	2
0	1888	2932.267225288866	3
0	1891	2937.409051112328	2
0	1893	2940.218000530388	3
0	1896	2941.571694453259	4
0	1899	2953.550622028086	5
0	1902	2954.648770933999	4
0	1904	2956.81947332098	3
0	1906	2966.599660685402	2
0	1908	2982.71708978581	3
0	1911	2985.123957613577	4
0	1914	2988.098639696777	3
0	1916	2988.474237226245	2
0	1918	2991.873499407196	1
0	1920	3001.557341556405	0
0	1922	3003.774874659736	1
0	1925	3011.923966996009	2
0	1928	3018.239001401522	3
0	1931	3018.521075889697	2
0	1933	3032.265466778921	3
0	1936	3032.840654354745	2
0	1938	3033.81921750525	3
0	1941	3037.716941108817	2
0	1943	3039.712754906426	3
0	1946	3043.361196280897	4
0	1949	3047.781118012084	5
0	1952	3064.088808294066	4
0	1954	3067.036652985483	5
0	1957	3073.093924869837	6
0	1960	3075.892528212192	7
0	1963	3081.747930817714	6
0	1965	3084.500713537075	5
0	1967	3093.190774170503	4
0	1969	3099.23945789715	5
0	1972	3102.840824944731	6
0	1975	3116.869349517963	5
0	1977	3121.694724492522	4
0	1979	3124.669370811088	3
0	1981	3131.189466052286	2
0	1983	3138.798828583241	1
0	1985	3144.414328433574	0
0	1987	3160.660798347609	1
0	1990	3167.662754253921	2
0	1993	3174.92937527562	1
0	1995	3176.554476609963	2
0	1998	3187.866096516423	3
0	2001	3192.673664711789	2
0	2003	3200.335147825828	3
0	2006	3202.08867714223	4
0	2009	3205.052847958393	3
0	2011	3208.782078150406	2
0	2013	3222.529254746691	1
0	2015	3234.046506444467	2
0	2018	3238.460460705576	3
0	2021	3239.681553856091	4
0	2024	3241.490564960944	3
0	2026	3244.587549168808	4
0	2029	3244.800658779992	5
0	2032	3245.512141269399	6
0	2035	3252.473473148432	5
0	2037	3256.489466704408	6
0	2040	3257.950146845513	5
0	2042	3261.932128764705	6
0	2045	3262.45337455151	5
0	2047	3264.194233743321	4
0	2049	3268.229955135423	3
0	2051	3269.601291596151	4
0	2054	3273.817035698632	5
0	2057	3274.179625764643	4
0	2059	3274.652853616099	5
0	2062	3278.022655892941	6
0	2065	3283.701755743323	5
0	2067	3283.926183564975	6
0	2070	3287.053464929041	7
0	2073	3288.369361869196	6
0	2075	3292.718446620909	7
0	2078	3301.553979541278	8
0	2080	3304.245519330646	9
0	2082	3319.148689659937	10
0	2084	3320.801263596019	9
0	2087	3321.433507471226	10
0	2089	3327.783959438832	9
0	2092	3328.33962534479	10
0	2094	3329.930640257522	11
0	2096	3331.843767848007	12
0	2098	3338.856926134751	13
0	2100	3345.637486575028	12
0	2103	3346.255369058719	13
0	2105	3347.592486756492	14
0	2107	3351.834484575045	13
0	2110	3359.546040595671	14
0	2112	3365.015115428007	13
0	2115	3369.496835491046	14
0	2117	3371.557019791329	13
0	2120	3381.491532596579	14
0	2122	3389.34317944686	13
0	2125	3397.149459991621	14
0	2127	3399.05217494571	13
0	2130	3399.507747255098	12
0	2133	3409.058096765891	13
0	2135	3418.336248153698	14
0	2137	3420.059019657952	15
0	2139	3422.523508731071	16
0	2141	3424.227396817286	15
0	2144	3427.99493404292	14
0	2147	3431.454653053821	13
0	2150	3432.519992678114	12
0	2153	3432.715842690635	13
0	2155	3433.176307999505	12
0	2158	3436.762981271779	13
0	2160	3439.633360385157	12
0	2163	3452.346134267028	13
0	2165	3454.568571732502	12
0	2168	3458.102326725812	13
0	2170	3459.371144703667	12
0	2173	3461.325011604258	13
0	2175	3464.358223616092	12
0	2178	3464.700258380096	13
0	2180	3469.32577063144	12
0	2183	3470.000112183289	13
0	2185	3473.500660765453	12
0	2188	3476.310372357869	13
0	2190	3476.547964210205	12
0	2193	3477.652734356627	11
0	2196	3478.32490761434	10
0	2199	3478.540784160503	9
0	2202	3485.533728206439	8
0	2205	3486.528038429359	9
0	2207	3486.538020936282	8
0	2210	3488.161262709395	7
0	2213	3495.797911520091	8
0	2215	3498.557225671577	9
0	2217	3500.232725369986	8
0	2220	3501.407116264245	9
0	2222	3506.392481261237	10
0	2224	3508.332701205666	11
0	2226	3511.55173260587	10
0	2229	3520.176067383324	11
0	2231	3524.404974212088	10
0	2234	3524.606210816152	9
0	2237	3526.423330336723	8
0	2240	3530.760114469795	7
0	2243	3532.597080152186	8
0	2245	3535.252525733462	7
0	2248	3540.692185649634	6
0	2250	3543.594872839415	7
0	2253	3555.558353541749	8
0	2255	3557.708577298038	7
0	2258	3559.541109629451	6
0	2260	3565.03665067615	5
0	2262	3568.285472088915	6
0	2265	3568.626443944152	7
0	2268	3571.378854960481	8
0	2270	3579.674900159603	9
0	2272	3581.501147191239	8
0	2275	3588.602360655559	7
0	2278	3591.008061694337	8
0	2280	3592.105560305536	9
0	2282	3592.202034547384	8
0	2285	3596.042553414446	7
0	2288	3600.648248523291	6
0	2290	3613.010103548703	5
0	2292	3614.821675787317	4
0	2294	3618.504777888975	3
0	2296	3618.619406958574	4
0	2299	3624.965843709091	5
0	2302	3626.294545051514	4
0	2304	3631.377728974799	3
0	2306	3634.042159713941	4
0	2309	3636.79926618626	5
0	2312	3638.50947800362	4
0	2314	3639.838808126909	3
0	2316	3641.184891767126	2
0	2318	3645.641711551803	3
0	2321	3649.985958829585	2
0	2323	3650.707503715329	1
0	2325	3659.624193520509	2
0	2328	3661.171881164608	3
0	2331	3661.991265415586	4
0	2334	3663.557566698189	5
0	2337	3670.475095075107	4
0	2339	3681.781635916131	5
0	2342	3681.971377753976	4
0	2344	3688.057187683618	3
0	2346	3689.022120718081	4
0	2349	3692.370391532208	5
0	2352	3693.906825350338	6
0	2355	3695.040120122049	7
0	2358	3701.337291169896	8
0	2360	3702.912974518226	7
0	2363	3704.64064921252	6
0	2365	3706.23105195035	7
0	2368	3710.931159663592	6
0	2370	3716.072774097067	7
0	2373	3716.778509964231	8
0	2375	3723.748732227156	7
0	2378	3728.05061232083	8
0	2380	3730.1545074758	7
0	2383	3731.601722516847	6
0	2385	3733.332282600947	5
0	2387	3735.168310494931	4
0	2389	3737.774132020776	3
0	2391	3737.795490728659	2
0	2393	3738.834176525165	3
0	2396	3745.230237659699	4
0	2399	3748.847394207972	5
0	2402	3756.682981788301	6
0	2405	3759.929437123103	7
0	2408	3763.274219364432	8
0	2410	3764.174416413921	9
0	2412	3770.462762120189	10
0	2414	3772.110552697247	11
0	2416	3773.081342007814	10
0	2419	3773.933299902361	11
0	2421	3775.327168524187	10
0	2424	3777.693412417232	9
0	2427	3779.792543103303	10
0	2429	3786.261693010392	9
0	2432	3786.801231403719	8
0	2435	3787.982260204984	7
0	2438	3791.832257893499	6
0	2440	3794.565619858132	7
0	2443	3795.521496255436	8
0	2445	3799.8162821626	9
0	2447	3803.809969013518	8
0	2450	3805.108316686013	9
0	2452	3806.30504757139	10
0	2454	3807.017683749614	9
0	2457	3816.085094225544	8
0	2460	3817.76411342724	7
0	2463	3827.751062612075	8
0	2465	3828.793479267444	7
0	2468	3835.490324083445	8
0	2470	3835.786605383331	7
0	2473	3836.382491436709	6
0	2475	3838.489584845143	5
0	2477	3839.561679518278	6
0	2480	3840.279446113586	5
0	2482	3841.81137514594	4
0	2484	3843.529139195891	3
0	2486	3886.471407312287	4
0	2489	3888.062839973426	5
0	2492	3888.377730718062	4
0	2494	3891.072078452203	5
0	2497	3892.990817735445	4
0	2499	3893.041915577119	3
0	2501	3893.79249077035	2
0	2503	3899.125009816691	1
0	2505	3904.170336059414	2
0	2508	3910.908778496277	3
0	2511	3919.556579471734	4
0	2514	3920.857215742191	3
0	2516	3924.155846563924	2
0	2518	3925.386318576785	3
0	2521	3932.989963011926	4
0	2524	3935.193435609273	3
0	2526	3936.421888133734	4
0	2529	3937.479925516844	5
0	2532	3938.637601942192	4
0	2534	3939.829301678938	3
0	2536	3940.662232169746	2
0	2538	3941.224719343798	3
0	2541	3944.689978056427	4
0	2544	3953.319871410609	3
0	2546	3954.45518105519	4
0	2549	3959.463606514674	3
0	2551	3959.581134107838	4
0	2554	3964.95704543088	5
0	2557	3968.76052411396	6
0	2560	3970.19428008403	5
0	2562	3972.311647541928	6
0	2565	3974.31909274206	7
0	2568	3974.772752057925	6
0	2570	3976.226481227617	5
0	2572	3976.835204316037	6
0	2575	3978.893775289614	7
0	2578	3979.176523167333	6
0	2580	3983.499547846027	5
0	2582	3984.699822292155	4
0	2584	4013.814688766936	5
0	2587	4015.047623598835	6
0	2590	4015.979928027924	7
0	2593	4016.428301241796	6
0	2595	4019.252093223137	5
0	2597	4026.437579184862	6
0	2600	4029.65435632269	5
0	2602	4031.4388666463	4
0	2604	4032.133978068867	5
0	2607	4033.184070213771	6
0	2610	4033.311249679851	5
0	2612	4038.39112335999	4
0	2614	4043.737056685447	5
0	2617	4046.819744958037	6
0	2620	4048.067642311158	7
0	2623	4048.1805143237	6
0	2625	4049.05449416819	5
0	2627	4052.043808117312	6
0	2630	4053.431704993089	5
0	2632	4053.509238279918	4
0	2634	4056.588389374727	5
0	2637	4056.897827226256	6
0	2640	4058.349667919513	5
0	2642	4059.441742516403	6
0	2645	4060.789198571266	7
0	2648	4063.528566499011	6
0	2650	4066.996102546434	5
0	2652	4071.651757417789	6
0	2655	4073.148651922943	7
0	2658	4078.198366347077	6
0	2660	4083.600999392926	5
0	2662	4091.560575050362	6
0	2665	4103.328849717706	7
0	2668	4104.006127714423	8
0	2670	4104.977672509935	7
0	2673	4106.193190458767	8
0	2675	4116.365997208791	9
0	2677	4120.932098070598	8
0	2680	4127.366303649267	9
0	2682	4131.274582264918	8
0	2685	4133.545594556706	9
0	2687	4136.961076359947	10
0	2689	4138.036867493719	9
0	2692	4139.143156542555	8
0	2695	4142.857247039605	7
0	2698	4147.07311440174	6
0	2700	4147.623863193337	5
0	2702	4160.653820762614	4
0	2704	4161.975637351469	5
0	2707	4166.384261219182	4
0	2709	4168.053420815625	3
0	2711	4170.634715711713	4
0	2714	4170.659096057638	5
0	2717	4178.654239836323	4
0	2719	4179.162447643974	5
0	2722	4189.087962992017	6
0	2725	4191.209859886834	7
0	2728	4192.173677633989	6
0	2730	4201.793778441376	7
0	2733	4206.165052334511	8
0	2735	4207.712010090046	9
0	2737	4208.849625129247	8
0	2740	4213.485845301787	7
0	2743	4216.74153551158	8
0	2745	4223.085374971369	7
0	2748	4223.133986761016	8
0	2750	4224.044492489863	7
0	2753	4226.000049012105	6
0	2755	4226.592345688312	5
0	2757	4230.571938923784	6
0	2760	4235.043496151682	5
0	2762	4241.987545176265	4
0	2764	4260.673029243029	5
0	2767	4268.178876669417	6
0	2770	4276.949655005379	7
0	2773	4277.27192732551	8
0	2775	4278.708726557955	9
0	2777	4278.813728554601	8
0	2780	4290.299159058505	7
0	2783	4297.576550282322	8
0	2785	4300.368425680334	7
0	2788	4307.192500721247	8
0	2790	4313.241819886723	7
0	2793	4322.195741916398	6
0	2795	4323.349581715398	5
0	2797	4324.782365741256	6
0	2800	4326.337877164179	5
0	2802	4328.608992020751	4
0	2804	4330.460341562001	5
0	2807	4331.111982399194	4
0	2809	4331.920942968238	3
0	2811	4332.03509387437	4
0	2814	4336.987525345323	3
0	2816	4339.505007569574	2
0	2818	4344.984255193629	3
0	2821	4346.603683376557	2
0	2823	4348.911178199683	3
0	2826	4350.643958953217	2
0	2828	4351.168957322232	3
0	2831	4370.224979720615	4
0	2834	4370.89956763047	5
0	2837	4374.335472795155	4
0	2839	4375.713328290523	5
0	2842	4378.39827649452	4
0	2844	4380.090399794972	5
0	2847	4380.475666456861	4
0	2849	4382.390068764959	3
0	2851	4384.633704674465	4
0	2854	4388.434259086945	5
0	2857	4388.497234925949	4
0	2859	4392.808484154189	3
0	2861	4395.085742762544	2
0	2863	4398.326565114208	3
0	2866	4404.810371276918	4
0	2869	4406.213794820237	5
0	2872	4409.944921762444	6
0	2875	4415.470184429633	5
0	2877	4418.596049499264	4
0	2879	4425.891139542709	5
0	2882	4433.386105327395	4
0	2884	4433.63189631479	5
0	2887	4433.743572837325	6
0	2890	4435.391605463342	7
0	2893	4436.007459171176	8
0	2895	4438.101776172251	9
0	2897	4439.888055464371	8
0	2900	4441.269781492779	7
0	2903	4441.873535275606	8
0	2905	4442.51480750879	7
0	2908	4444.757500795423	6
0	2910	4446.564425366211	5
0	2912	4457.675734196952	4
0	2914	4464.206431473641	3
0	2916	4465.77578106971	4
0	2919	4468.065787781138	3
0	2921	4468.070451474919	4
0	2924	4473.453817162745	5
0	2927	4474.989848281106	4
0	2929	4478.076242224365	3
0	2931	4479.203561377897	4
0	2934	4482.791593141314	3
0	2936	4488.062299283698	4
0	2939	4489.30132258571	5
0	2942	4490.114479992648	6
0	2945	4491.122042026008	5
0	2947	4498.324563711962	6
0	2950	4504.676821456051	7
0	2953	4510.873510313247	8
0	2955	4511.33089764226	7
0	2958	4516.779154053014	6
0	2960	4525.608105843144	5
0	2962	4527.327647477899	6
0	2965	4532.602555300211	5
0	2967	4536.037250780262	4
0	2969	4537.772393738431	3
0	2971	4539.455351623227	2
0	2973	4541.499264407763	3
0	2976	4542.40318829155	4
0	2979	4544.098002475571	3
0	2981	4544.9112899638	4
0	2984	4554.178380102914	3
0	2986	4554.376752859769	4
0	2989	4555.877571587497	5
0	2992	4558.272391739133	4
0	2994	4558.95044508005	5
0	2997	4561.117228655617	4
0	2999	4561.61555010468	3
0	3001	4564.93013610481	4
0	3004	4567.167710375416	3
0	3006	4571.963423259987	4
0	3009	4574.178472560206	5
0	3012	4579.176452596734	6
0	3015	4581.266393743493	5
0	3017	4584.05005019994	6
0	3020	4592.008644167892	7
0	3023	4592.999393124389	8
0	3025	4596.68673563023	7
0	3028	4606.141589693743	6
0	3030	4606.296803445301	5
0	3032	4606.98162205845	4
0	3034	4612.174648255824	3
0	3036	4612.800983261989	4
0	3039	4615.516091122825	3
0	3041	4620.127442559445	4
0	3044	4623.940879559548	3
0	3046	4628.662460911035	2
0	3048	4635.784787277642	3
0	3051	4639.340415127428	2
0	3053	4648.741179573812	1
0	3055	4650.278928715502	2
0	3058	4655.207561580247	3
0	3061	4673.05426135185	2
0	3063	4674.681140456194	3
0	3066	4677.716410628525	4
0	3069	4689.614863197367	3
0	3071	4701.783234121599	4
0	3074	4711.472640414806	3
0	3076	4713.608314411937	2
0	3078	4714.062084247368	3
0	3081	4715.311258780619	2
0	3083	4721.031272809561	3
0	3086	4723.251377156738	2
0	3088	4728.020110746595	1
0	3090	4730.959379683993	2
0	3093	4736.743124087622	3
0	3096	4741.958571209609	4
0	3099	4750.453810830941	3
0	3101	4753.953065025073	4
0	3104	4756.413804489165	5
0	3107	4758.652416626627	4
0	3109	4765.334112062779	5
0	3112	4766.191330709689	6
0	3115	4767.622311169993	7
0	3118	4774.610943534867	8
0	3120	4779.073699424943	9
0	3122	4779.246465852935	10
0	3124	4780.588067172462	11
0	3126	4781.740373323991	12
0	3128	4788.431002356661	13
0	3130	4796.166569163744	12
0	3133	4803.302447480284	13
0	3135	4808.9946165902	14
0	3137	4809.11630656215	15
0	3139	4813.95415248024	16
0	3141	4818.661832959604	17
0	3143	4843.273210833909	16
0	3146	4847.371323943979	15
0	3149	4851.162350396252	14
0	3152	4855.415296234716	13
0	3155	4856.35610498673	14
0	3157	4859.747519701005	15
0	3159	4870.392991704847	14
0	3162	4876.924842097005	13
0	3165	4878.179933158707	14
0	3167	4879.215990534293	15
0	3169	4880.529572358932	16
0	3171	4880.929599838066	17
0	3173	4881.540253977536	16
0	3176	4886.589657608246	15
0	3179	4888.414912335158	16
0	3181	4894.882652468907	17
0	3183	4895.597428337625	16
0	3186	4896.346565749083	15
0	3189	4896.497140595052	14
0	3192	4900.086485801028	15
0	3194	4905.046408588981	16
0	3196	4910.203383780578	15
0	3199	4919.157591864708	16
0	3201	4925.890893994909	17
0	3203	4929.105491947382	16
0	3206	4939.674051078815	15
0	3209	4947.099579316162	16
0	3211	4948.267744166072	15
0	3214	4949.138419897853	14
0	3217	4949.361936451618	13
0	3220	4950.823188179136	14
0	3222	4962.163673043182	13
0	3225	4963.731903544077	12
0	3228	4964.940940205178	13
0	3230	4974.473337597642	12
0	3233	4977.797583682523	11
0	3236	4980.808765699211	12
0	3238	4981.025820045126	13
0	3240	4988.573399123936	12
0	3243	4995.412160958074	11
0	3246	4998.02560053455	12
0	3248	4998.479700688763	11
0	3251	5008.292284703063	10
0	3254	5015.703519828938	11
0	3256	5021.730316500939	12
0	3258	5022.757690770887	11
0	3261	5022.774353937585	10
0	3264	5023.166186611908	11
0	3266	5032.442127108387	12
0	3268	5032.841643911899	11
0	3271	5035.693518933331	12
0	3273	5037.4762809348	11
0	3276	5040.567065327213	10
0	3279	5041.648209577737	9
0	3282	5041.992535452961	8
0	3285	5049.413898416044	7
0	3288	5050.101971882964	6
0	3290	5050.719580184436	5
0	3292	5055.187035971865	6
0	3295	5058.97657422967	7
0	3298	5061.464289374624	6
0	3300	5062.992512488446	7
0	3303	5063.321526618316	6
0	3305	5067.215265664074	5
0	3307	5067.655205943122	4
0	3309	5069.943264567723	3
0	3311	5071.097935985153	2
0	3313	5076.634859455411	3
0	3316	5078.048669223149	2
0	3318	5091.516053059156	3
0	3321	5092.494276016962	2
0	3323	5093.281756023013	3
0	3326	5096.724793234391	4
0	3329	5098.273724145866	5
0	3332	5099.06561966597	6
0	3335	5101.163373572642	5
0	3337	5104.58809384655	4
0	3339	5109.591265374666	3
0	3341	5110.434814200238	2
0	3343	5138.140516006335	3
0	3346	5140.10422338904	4
0	3349	5140.470051673514	5
0	3352	5151.368404351919	4
0	3354	5153.921190431006	3
0	3356	5159.761822503275	4
0	3359	5162.740180201585	5
0	3362	5164.545523586325	6
0	3365	5165.086829311516	5
0	3367	5168.78808650159	6
0	3370	5175.68487190798	5
0	3372	5177.383053990434	4
0	3374	5181.919397628145	5
0	3377	5183.961253590929	6
0	3380	5184.94402506778	7
0	3383	5185.283604859837	6
0	3385	5187.468320637828	7
0	3388	5191.254125065021	6
0	3390	5202.86755286634	7
0	3393	5202.966789231268	6
0	3395	5203.732749748972	5
0	3397	5203.774853208723	6
0	3400	5204.114082888861	5
0	3402	5204.577887097423	4
0	3404	5208.436125780368	3
0	3406	5212.896424108063	4
0	3409	5215.364811386875	3
0	3411	5215.518512697058	2
0	3413	5226.225365029927	3
0	3416	5227.352248891707	4
0	3419	5229.610940942974	5
0	3422	5235.238375985365	6
0	3425	5235.742155234037	5
0	3427	5243.276110996917	6
0	3430	5244.79891862416	7
0	3433	5248.047347610783	6
0	3435	5248.374690932542	7
0	3438	5248.715282375139	6
0	3440	5258.044679493311	7
0	3443	5258.083675869402	8
0	3445	5265.305387352908	7
0	3448	5267.414156956159	6
0	3450	5269.198062986611	5
0	3452	5276.921692314889	6
0	3455	5279.193559974063	7
0	3458	5281.344951987929	8
0	3460	5283.687590708302	7
0	3463	5286.697146567129	6
0	3465	5289.967535957907	5
0	3467	5295.516240848248	6
0	3470	5297.114410232363	5
0	3472	5297.20754275957	6
0	3475	5300.102924096666	5
0	3477	5301.444353365738	6
0	3480	5304.322369574147	7
0	3483	5305.076104184973	8
0	3485	5306.629369195641	9
0	3487	5309.390207340307	8
0	3490	5314.767855991245	7
0	3493	5320.727157726103	6
0	3495	5320.847508606107	5
0	3497	5336.056843083827	6
0	3500	5343.699090444967	5
0	3502	5343.928786704449	6
0	3505	5345.819374101849	5
0	3507	5348.741095344024	4
0	3509	5352.38154124722	5
0	3512	5355.267929233317	4
0	3514	5360.19589114596	3
0	3516	5371.762210734196	4
0	3519	5380.3027389132	5
0	3522	5380.376795034449	6
0	3525	5383.242191598752	5
0	3527	5401.371940433369	6
0	3530	5402.282934444546	5
0	3532	5407.852604740516	6
0	3535	5420.872664902902	5
0	3537	5423.772814760355	4
0	3539	5429.479807304049	5
0	3542	5430.005547091992	6
0	3545	5446.706778807873	5
0	3547	5446.852263852193	6
0	3550	5447.899553396431	5
0	3552	5452.700675393262	4
0	3554	5465.0022607247	3
0	3556	5468.839121553836	2
0	3558	5472.891427027106	3
0	3561	5476.998395422258	4
0	3564	5477.436292976139	3
0	3566	5478.305912900273	4
0	3569	5480.922283511469	5
0	3572	5491.686715804609	6
0	3575	5492.41931575432	5
0	3577	5495.890224276583	4
0	3579	5496.93237094644	5
0	3582	5500.900338370879	6
0	3585	5512.211992706982	7
0	3588	5516.800338179582	6
0	3590	5517.577734372139	7
0	3593	5517.783124378786	6
0	3595	5519.83040689452	5
0	3597	5522.02914456088	4
0	3599	5523.266310681591	5
0	3602	5526.632735178892	4
0	3604	5528.364474851256	3
0	3606	5533.696647832404	4
0	3609	5534.934567019811	3
0	3611	5537.460174441617	4
0	3614	5548.842059280291	5
0	3617	5549.507839425137	4
0	3619	5553.098951232264	3
0	3621	5556.127544314409	4
0	3624	5558.532593602293	5
0	3627	5560.241201461075	4
0	3629	5562.900771894653	3
0	3631	5566.754019411919	4
0	3634	5568.283408805701	3
0	3636	5575.333343306017	2
0	3638	5577.490621087147	3
0	3641	5588.854759428167	2
0	3643	5590.432264244707	1
0	3645	5603.684174073415	0
0	3647	5608.21935185055	1
0	3650	5617.032066641187	2
0	3653	5624.805187614138	3
0	3656	5629.292174499091	4
0	3659	5633.291265734804	5
0	3662	5634.343808162689	6
0	3665	5635.67752210488	5
0	3667	5637.247549707041	4
0	3669	5637.346407593011	3
0	3671	5656.190884456163	4
0	3674	5657.067924133791	3
0	3676	5659.018684552847	4
0	3679	5669.547481720525	5
0	3682	5671.920650990116	4
0	3684	5681.113015809323	3
0	3686	5681.870248823891	2
0	3688	5685.111215768079	1
0	3690	5685.972889201907	2
0	3693	5690.477839356529	3
0	3696	5691.303501178373	2
0	3698	5696.4127319288	1
0	3700	5700.768290268901	2
0	3703	5705.107347278076	1
0	3705	5705.690628867407	2
0	3708	5716.318241819284	3
0	3711	5718.341090949448	2
0	3713	5726.030206739328	1
0	3715	5751.842132055334	0
0	3717	5770.058014655645	1
0	3720	5770.944769780512	0
0	3722	5774.517790805437	1
0	3725	5785.651113683059	0
0	3727	5801.022883076057	1
0	3730	5807.959488115414	0
0	3732	5833.962409985048	1
0	3735	5834.014737554427	2
0	3738	5836.793265607237	3
0	3741	5843.998631628351	2
0	3743	5851.757358515036	3
0	3746	5871.859090972559	2
0	3748	5887.892617568327	3
0	3751	5891.493988899133	4
0	3754	5893.645591327029	5
0	3757	5897.208743534397	4
0	3759	5897.696099414222	5
0	3762	5898.98308656339	4
0	3764	5911.59472255521	5
0	3767	5914.385053000811	6
0	3770	5923.273813470197	7
0	3773	5924.0081026908	6
0	3775	5930.905674546582	7
0	3778	5931.762885742095	6
0	3780	5933.695822520072	5
0	3782	5934.714109842551	4
0	3784	5939.804945219875	5
0	3787	5941.359796294818	6
0	3790	5942.716328909166	7
0	3793	5944.585738031256	8
0	3795	5950.853168294886	9
0	3797	5952.802880023927	10
0	3799	5953.524227568219	11
0	3801	5955.733872444571	10
0	3804	5957.255716664427	9
0	3807	5960.118056345544	10
0	3809	5961.976584053608	9
0	3812	5963.726939895771	8
0	3815	5972.97381352949	9
0	3817	5973.844187736633	10
0	3819	5978.807548983109	9
0	3822	5989.593857505856	10
0	3824	5990.822482134575	9
0	3827	5992.577755392474	10
0	3829	5995.28807452456	11
0	3831	5996.418317183086	10
0	3834	6008.443687851923	11
0	3836	6009.73042135426	12
0	3838	6015.055223269259	13
0	3840	6016.922402948543	14
0	3842	6027.130296506774	13
0	3845	6033.82090170597	12
0	3848	6041.66435915675	11
0	3851	6041.862767443054	12
0	3853	6042.889066988161	13
0	3855	6043.096594255959	12
0	3858	6044.262512970505	11
0	3861	6052.918770670048	12
0	3863	6054.821103290252	13
0	3865	6055.800662328395	14
0	3867	6057.409636645229	13
0	3870	6060.073511118821	12
0	3873	6069.846202902377	11
0	3876	6079.110684816289	12
0	3878	6082.449225855479	11
0	3881	6083.862339911558	12
0	3883	6091.127854317598	11
0	3886	6091.200367945674	12
0	3888	6097.185749148681	13
0	3890	6102.196654690484	12
0	3893	6104.163433474536	11
0	3896	6104.329192946813	10
0	3899	6105.148490930186	9
0	3902	6108.807697804579	10
0	3904	6119.375721092274	9
0	3907	6126.940567406777	10
0	3909	6129.533293467643	11
0	3911	6131.243564049002	10
0	3914	6144.958254927113	9
0	3917	6149.764478407081	10
0	3919	6152.120997409263	11
0	3921	6152.55904344293	12
0	3923	6153.945643684245	13
0	3925	6165.629183134145	12
0	3928	6173.182645429756	13
0	3930	6183.799090621908	12
0	3933	6185.349524611788	13
0	3935	6185.528412494204	12
0	3938	6187.822230388563	11
0	3941	6189.461296181117	10
0	3944	6189.887976534322	9
0	3947	6194.69511347418	10
0	3949	6196.236343863172	11
0	3951	6202.540132265864	10
0	3954	6203.071153660906	11
0	3956	6206.539522548825	10
0	3959	6210.195909889784	11
0	3961	6230.23612657208	12
0	3963	6231.077173740784	13
0	3965	6232.561633270954	12
0	3968	6235.231136530962	13
0	3970	6238.348000520814	14
0	3972	6242.41420040876	13
0	3975	6247.276931730007	14
0	3977	6248.841415260797	13
0	3980	6248.912103774132	12
0	3983	6249.790298694207	11
0	3986	6258.006357876992	12
0	3988	6261.422490648053	11
0	3991	6271.972342027623	12
0	3993	6274.643372558332	13
0	3995	6276.554679038905	12
0	3998	6277.681726069256	11
0	4001	6288.15126727004	10
0	4004	6288.186292251647	11
0	4006	6292.375247266284	10
0	4009	6296.995817575913	9
0	4012	6302.51867554191	8
0	4015	6303.506855928808	9
0	4017	6303.508690060744	8
0	4020	6304.416312862019	7
0	4023	6310.081294918277	8
0	4025	6316.553352816957	7
0	4028	6324.492534793795	8
0	4030	6331.054738287475	9
0	4032	6336.807358199955	10
0	4034	6341.538048836018	9
0	4037	6352.423495861473	10
0	4039	6356.057193881303	9
0	4042	6369.915113502064	8
0	4045	6370.561934061166	7
0	4048	6372.510162579659	6
0	4050	6378.267976151768	5
0	4052	6378.836358948924	6
0	4055	6380.677045901628	7
0	4058	6384.920157284535	8
0	4060	6386.826955968176	7
0	4063	6390.048646462682	6
0	4065	6394.199561032865	5
0	4067	6394.983110838909	6
0	4070	6397.802931920505	5
0	4072	6403.692604621016	6
0	4075	6408.258451356714	5
0	4077	6411.074372429611	4
0	4079	6417.229577543225	5
0	4082	6422.48634768415	4
0	4084	6424.731696161008	3
0	4086	6429.737220935373	4
0	4089	6430.753313532271	5
0	4092	6434.336982712059	4
0	4094	6448.816699275141	3
0	4096	6459.483100114336	4
0	4099	6469.484447057635	3
0	4101	6470.518943624243	2
0	4103	6472.192746423408	1
0	4105	6474.589553790201	2
0	4108	6478.495288729816	3
0	4111	6479.565572334435	4
0	4114	6480.395228796353	3
0	4116	6482.631477270875	4
0	4119	6483.073163688682	5
0	4122	6484.712278265053	4
0	4124	6486.845163316034	5
0	4127	6490.264868621495	4
0	4129	6491.933714464238	5
0	4132	6500.142368229106	6
0	4135	6507.723607150404	5
0	4137	6507.936219418097	4
0	4139	6522.484783777892	5
0	4142	6528.015126663664	4
0	4144	6529.592604797324	3
0	4146	6532.679807849483	2
0	4148	6536.196484341926	3
0	4151	6558.264188480446	2
0	4153	6559.777861411727	3
0	4156	6561.371553922048	2
0	4158	6564.009694916692	3
0	4161	6571.079760616764	4
0	4164	6571.538202615723	5
0	4167	6584.957178605969	6
0	4170	6585.540896489234	5
0	4172	6595.194546312345	6
0	4175	6597.509396164222	7
0	4178	6603.650150030297	6
0	4180	6608.550559359326	7
0	4183	6608.58844486709	6
0	4185	6609.492609518247	5
0	4187	6615.322136446576	4
0	4189	6616.748954898125	5
0	4192	6617.438518576568	6
0	4195	6618.888586929114	7
0	4198	6620.903303067821	6
0	4200	6622.43074031158	5
0	4202	6645.75401587038	6
0	4205	6648.090993302991	7
0	4208	6650.159930003395	6
0	4210	6657.684322065563	7
0	4213	6658.767314999444	6
0	4215	6674.082538407912	5
0	4217	6679.114836511062	6
0	4220	6681.68838903655	7
0	4223	6689.378210929933	6
0	4225	6690.021520362564	5
0	4227	6699.898396782331	6
0	4230	6700.068655721019	7
0	4233	6701.141974822385	6
0	4235	6705.999722481457	5
0	4237	6708.798455971751	4
0	4239	6710.935173954099	5
0	4242	6712.954423884885	6
0	4245	6714.547707099494	5
0	4247	6718.086506572409	6
0	4250	6720.83758800885	5
0	4252	6723.158954241446	4
0	4254	6726.175130847677	5
0	4257	6732.802549067988	4
0	4259	6738.477014056773	3
0	4261	6743.174010134958	4
0	4264	6761.677712371131	5
0	4267	6763.175087254264	6
0	4270	6770.663360038227	7
0	4273	6775.761480846817	6
0	4275	6776.335422072615	7
0	4278	6779.321887007339	8
0	4280	6779.338971003913	7
0	4283	6786.635842677895	8
0	4285	6786.766969959309	7
0	4288	6787.838035460754	8
0	4290	6788.141677377418	9
0	4292	6790.458767532007	10
0	4294	6803.981273618949	11
0	4296	6804.334457121297	10
0	4299	6804.392767669192	9
0	4302	6804.62692470086	10
0	4304	6805.17297413166	9
0	4307	6805.564542949898	8
0	4310	6807.272646496156	9
0	4312	6809.178755126272	10
0	4314	6829.933073492538	11
0	4316	6832.518847368518	10
0	4319	6834.420926014689	11
0	4321	6834.942128863721	10
0	4324	6840.121159195685	9
0	4327	6848.327120188634	8
0	4330	6848.995758981531	7
0	4333	6856.050352663393	8
0	4335	6859.249650637567	7
0	4338	6862.276696244797	8
0	4340	6863.500797158527	7
0	4343	6873.831795268146	6
0	4345	6874.679164565979	7
0	4348	6878.726215382581	6
0	4350	6880.781997238539	7
0	4353	6891.211022477233	6
0	4355	6894.813560412718	7
0	4358	6896.710782446739	6
0	4360	6897.506013608993	7
0	4363	6900.394495104808	8
0	4365	6907.12842870855	7
0	4368	6909.892697283531	6
0	4370	6914.576996580304	7
0	4373	6915.958028299551	8
0	4375	6919.745988313515	9
0	4377	6923.397315485517	10
0	4379	6928.087189050952	11
0	4381	6932.084368898061	12
0	4383	6943.448900643489	13
0	4385	6960.239908514652	12
0	4388	6962.020580830876	11
0	4391	6965.419095985252	12
0	4393	6967.832545877047	11
0	4396	6969.790140503219	12
0	4398	6975.486255404294	11
0	4401	6975.791650265852	10
0	4404	6977.935719825882	9
0	4407	6978.229751949859	8
0	4410	6983.527476559859	7
0	4413	6983.960164191065	8
0	4415	6984.52446503243	7
0	4418	6985.646966418485	8
0	4420	6993.055523438878	7
0	4423	6993.254282394777	6
0	4425	7000.332155071434	7
0	4428	7002.947182257899	6
0	4430	7006.47395068535	7
0	4433	7010.888367748417	6
0	4435	7011.259351499401	5
0	4437	7015.931514409915	6
0	4440	7016.377905881629	7
0	4443	7019.719349416545	6
0	4445	7029.170546857513	7
0	4448	7031.015946932273	8
0	4450	7036.013418807304	9
0	4452	7038.314538771802	10
0	4454	7041.639085689817	9
0	4457	7042.397109234173	8
0	4460	7054.487815613919	7
0	4463	7056.728198759927	8
0	4465	7062.8817421502	7
0	4468	7068.221058590567	6
0	4470	7081.817048334255	5
0	4472	7083.331031506883	4
0	4474	7085.159736334809	5
0	4477	7092.305074658405	4
0	4479	7108.818969136905	3
0	4481	7113.306168151544	4
0	4484	7119.373381197663	3
0	4486	7126.259922898944	4
0	4489	7130.49713451678	5
0	4492	7131.796440689652	4
0	4494	7133.466534744326	3
0	4496	7134.963602331377	4
0	4499	7135.524811582378	3
0	4501	7153.844454427563	4
0	4504	7154.986227863655	5
0	4507	7159.890003587108	4
0	4509	7164.960774931124	5
0	4512	7170.954236349973	4
0	4514	7174.123579398471	5
0	4517	7182.341291089836	6
0	4520	7182.482247304971	5
0	4522	7187.484758885006	6
0	4525	7193.453954889165	7
0	4528	7194.26545174377	6
0	4530	7197.466303240395	7
0	4533	7197.483293088257	6
0	4535	7206.677267936415	5
0	4537	7211.362650252526	4
0	4539	7213.400711764425	3
0	4541	7216.800157491813	2
0	4543	7220.556189235591	3
0	4546	7220.674880854174	2
0	4548	7230.449322647138	1
0	4550	7233.382840489326	2
0	4553	7236.984856991825	3
0	4556	7237.79148919749	4
0	4559	7238.997054079777	5
0	4562	7241.503182700495	4
0	4564	7243.144572100678	3
0	4566	7251.662685913636	4
0	4569	7252.160109107679	5
0	4572	7252.539567950073	4
0	4574	7254.463179073685	3
0	4576	7256.830618828839	4
0	4579	7262.428656176736	3
0	4581	7270.037267049177	4
0	4584	7270.461058298855	5
0	4587	7272.416096932503	4
0	4589	7273.792643313429	3
0	4591	7276.63572805135	4
0	4594	7278.259624110841	3
0	4596	7284.255326498023	2
0	4598	7289.58503557916	3
0	4601	7291.773192974517	4
0	4604	7293.461382532863	5
0	4607	7296.812011648355	6
0	4610	7298.694945756423	7
0	4613	7302.224805275884	6
0	4615	7307.27045182756	7
0	4618	7308.920249306088	8
0	4620	7312.043469707602	7
0	4623	7319.966303982685	8
0	4625	7320.067840586937	7
0	4628	7323.349403157414	8
0	4630	7324.063197438339	9
0	4632	7324.128391810405	10
0	4634	7330.512741572861	9
0	4637	7330.758291605509	8
0	4640	7331.916167791021	9
0	4642	7333.027039170767	10
0	4644	7333.251118209516	9
0	4647	7338.842174415537	8
0	4650	7339.427828020935	7
0	4653	7340.43997397291	8
0	4655	7342.261793200642	7
0	4658	7346.816598294034	6
0	4660	7347.697023516947	7
0	4663	7353.731923427426	6
0	4665	7353.830482962851	5
0	4667	7360.382446394831	6
0	4670	7362.25362225253	7
0	4673	7362.442532929012	6
0	4675	7364.285550655551	7
0	4678	7365.733208320632	6
0	4680	7367.543733047446	7
0	4683	7368.953344759244	8
0	4685	7371.667289078798	7
0	4688	7387.136680731934	6
0	4690	7388.053046886368	7
0	4693	7399.161576997191	8
0	4695	7402.974451149989	9
0	4697	7405.131540132256	8
0	4700	7406.901010786637	9
0	4702	7416.582930311255	8
0	4705	7419.012766394189	7
0	4708	7423.026521488702	8
0	4710	7424.063191465186	9
0	4712	7424.213759813884	10
0	4714	7428.819498175767	11
0	4716	7429.544786549568	10
0	4719	7446.246664096516	11
0	4721	7452.780125557049	10
0	4724	7453.329169315203	9
0	4727	7453.450555103083	8
0	4730	7455.65922617326	7
0	4733	7458.642502533151	6
0	4735	7459.051697408049	7
0	4738	7461.206608782702	6
0	4740	7462.492154619191	7
0	4743	7462.804688763004	6
0	4745	7465.887207962715	7
0	4748	7467.690024008859	8
0	4750	7469.463860124935	9
0	4752	7476.433850157823	8
0	4755	7476.631431107985	7
0	4758	7485.861837262848	6
0	4760	7489.186658296096	5
0	4762	7497.106345911516	6
0	4765	7508.712838510055	7
0	4768	7511.922292559252	8
0	4770	7512.465674540686	9
0	4772	7515.572822941836	8
0	4775	7527.134096476807	7
0	4778	7529.19216355966	8
0	4780	7529.995906578377	9
0	4782	7533.507570273721	8
0	4785	7541.755573558892	7
0	4788	7543.013113019924	6
0	4790	7544.55944884149	5
0	4792	7545.698766218328	6
0	4795	7545.921840892423	7
0	4798	7545.98516006894	6
0	4800	7546.486385132302	7
0	4803	7554.587661557375	6
0	4805	7555.621868473757	5
0	4807	7559.429699548177	6
0	4810	7560.450568858353	5
0	4812	7563.447811029991	4
0	4814	7565.604885772939	3
0	4816	7568.077642667317	4
0	4819	7571.064495893973	3
0	4821	7571.566185902732	4
0	4824	7575.459575211721	5
0	4827	7577.307851980894	6
0	4830	7580.899422290656	5
0	4832	7581.14917975839	6
0	4835	7581.169639499656	7
0	4838	7585.927441015727	8
0	4840	7587.567668409914	7
0	4843	7588.421745094736	8
0	4845	7588.43838312126	7
0	4848	7592.061048058056	8
0	4850	7593.289724766766	9
0	4852	7594.209136131652	8
0	4855	7600.984342554871	9
0	4857	7602.285430212529	8
0	4860	7609.22526773989	7
0	4863	7610.24894886323	6
0	4865	7617.593516318113	7
0	4868	7621.18654355489	8
0	4870	7622.134881875711	9
0	4872	7625.361291734362	8
0	4875	7632.37059104639	9
0	4877	7637.614759113543	8
0	4880	7639.312956849075	7
0	4883	7643.963739523558	8
0	4885	7645.879455053549	7
0	4888	7646.92256631287	8
0	4890	7649.895526148245	7
0	4893	7651.672796814285	6
0	4895	7652.742847941691	7
0	4898	7654.127592817422	6
0	4900	7654.228519253789	5
0	4902	7656.850017077821	6
0	4905	7657.17101151673	7
0	4908	7658.171865587008	6
0	4910	7658.243675146021	7
0	4913	7660.020402744908	8
0	4915	7663.907801802577	7
0	4918	7673.882876511193	6
0	4920	7674.681970362492	7
0	4923	7678.00860515949	6
0	4925	7678.042050207257	7
0	4928	7679.026169260183	6
0	4930	7686.234779608833	5
0	4932	7688.628580458455	6
0	4935	7692.258070256158	7
0	4938	7694.980837012759	8
0	4940	7697.80083389062	9
0	4942	7698.193856981675	8
0	4945	7703.603001466777	9
0	4947	7709.283820835427	8
0	4950	7710.404252760666	7
0	4953	7711.822319452437	8
0	4955	7713.589889648708	7
0	4958	7716.71002407635	6
0	4960	7721.144130133393	7
0	4963	7721.916655988614	8
0	4965	7735.082731656701	9
0	4967	7735.774612319752	10
0	4969	7739.133515104397	9
0	4972	7740.978854490963	10
0	4974	7741.422596949051	9
0	4977	7747.175792619693	10
0	4979	7756.349166189187	9
0	4982	7759.790836672338	10
0	4984	7760.248969086611	9
0	4987	7762.755197849998	10
0	4989	7765.048362983529	9
0	4992	7771.649008596303	10
0	4994	7772.562948117904	9
0	4997	7778.061157157971	8
0	5000	7778.154765682009	7
0	5003	7780.558130604044	8
0	5005	7784.28247652927	7
0	5008	7784.768292025221	6
0	5010	7789.924819563574	5
0	5012	7803.37782010142	4
0	5014	7803.704977471069	3
0	5016	7804.849380085698	4
0	5019	7807.498047999708	5
0	5022	7810.495399506489	6
0	5025	7814.735730759254	5
0	5027	7818.970126365809	4
0	5029	7819.593929752454	5
0	5032	7831.950351912314	6
0	5035	7834.465735142278	5
0	5037	7847.310853589643	4
0	5039	7848.908923440704	5
0	5042	7857.50993991637	4
0	5044	7858.689823712127	5
0	5047	7859.010805646905	4
0	5049	7862.094208572189	5
0	5052	7866.180294486652	6
0	5055	7868.558438016386	7
0	5058	7869.369657435944	8
0	5060	7876.211316017977	7
0	5063	7880.319612245802	8
0	5065	7881.045745437763	9
0	5067	7882.224664435651	10
0	5069	7887.275948286978	9
0	5072	7890.111666896524	10
0	5074	7896.036125444762	11
0	5076	7896.587155481186	10
0	5079	7897.284983857241	9
0	5082	7897.813052386028	10
0	5084	7898.25846873737	9
0	5087	7898.425497648319	8
0	5090	7907.80849347642	7
0	5093	7918.539625281197	8
0	5095	7924.544826969831	7
0	5098	7925.030941170888	8
0	5100	7927.793394656785	9
0	5102	7927.907038280988	8
0	5105	7929.57717831301	7
0	5108	7940.405108137693	6
0	5110	7951.262307706187	5
0	5112	7953.227888554034	6
0	5115	7954.616673456787	5
0	5117	7964.34563290837	6
0	5120	7972.268119351479	5
0	5122	7972.640435912711	4
0	5124	7975.74231694078	5
0	5127	7978.278609577815	4
0	5129	7979.915460905025	5
0	5132	7982.149591267739	4
0	5134	7984.392986941724	5
0	5137	7984.75746377481	4
0	5139	7984.976813327316	3
0	5141	7987.131666077661	2
0	5143	7998.98230544289	3
0	5146	7999.646403883181	2
0	5148	8004.57059871143	1
0	5150	8008.295176612637	2
0	5153	8010.628600718861	1
0	5155	8014.061537723667	0
0	5157	8019.256998863583	1
0	5160	8024.56767311217	2
0	5163	8024.784959736846	3
0	5166	8038.631933157442	4
0	5169	8052.718594473697	3
0	5171	8056.595488681545	4
0	5174	8059.908710378918	5
0	5177	8060.709836174298	4
0	5179	8061.385468148996	5
0	5182	8063.61320321823	4
0	5184	8069.211340378176	5
0	5187	8074.493710273609	4
0	5189	8086.189071660902	5
0	5192	8087.303042250466	6
0	5195	8089.170561271828	5
0	5197	8089.274394356749	4
0	5199	8091.331891548717	5
0	5202	8092.474710249705	6
0	5205	8092.905328540394	7
0	5208	8097.69197576026	6
0	5210	8109.896297498022	5
0	5212	8111.535430221488	4
0	5214	8120.492100618527	3
0	5216	8123.040018867235	4
0	5219	8138.552391333744	3
0	5221	8140.176671099507	4
0	5224	8146.607324393244	5
0	5227	8149.725217070866	4
0	5229	8154.618920433972	5
0	5232	8158.377280768275	4
0	5234	8159.519388165793	5
0	5237	8162.256981364003	6
0	5240	8164.300365691495	5
0	5242	8169.773848316037	6
0	5245	8169.805675055226	5
0	5247	8179.636520575351	4
0	5249	8182.011121572314	3
0	5251	8185.94211984112	4
0	5254	8187.743693544861	3
0	5256	8189.624563751325	2
0	5258	8195.205312130948	3
0	5261	8197.604220415256	4
0	5264	8198.055416873311	5
0	5267	8201.250908244997	6
0	5270	8210.045462568472	5
0	5272	8213.993713522588	4
0	5274	8222.865091823245	3
0	5276	8228.280407263272	4
0	5279	8230.207605484989	3
0	5281	8234.741138417533	4
0	5284	8234.859437626755	3
0	5286	8244.053731848624	4
0	5289	8251.421618569305	5
0	5292	8252.896858864654	4
0	5294	8260.286351556582	3
0	5296	8260.822508154945	2
0	5298	8261.605906600109	3
0	5301	8266.692439881998	4
0	5304	8269.018376062577	5
0	5307	8271.312711276459	4
0	5309	8271.979321983539	3
0	5311	8281.561074374574	4
0	5314	8288.729914764329	5
0	5317	8294.546650430869	4
0	5319	8294.96265548715	5
0	5322	8299.603249974926	4
0	5324	8304.014866293975	3
0	5326	8306.215858409356	2
0	5328	8307.773674012636	3
0	5331	8311.496570429888	2
0	5333	8316.459319914412	3
0	5336	8323.015251898327	2
0	5338	8329.523461856474	3
0	5341	8329.661019146987	2
0	5343	8330.17885159636	3
0	5346	8337.987951630555	2
0	5348	8341.484875572519	3
0	5351	8351.78252994328	2
0	5353	8359.148511708331	1
0	5355	8360.275384575505	2
0	5358	8361.012793249948	3
0	5361	8361.687510840031	4
0	5364	8362.416126858195	3
0	5366	8364.487059801179	4
0	5369	8367.951756140961	3
0	5371	8368.708016321064	2
0	5373	8373.849837255439	3
0	5376	8381.268364897149	2
0	5378	8396.071365253337	3
0	5381	8403.76442456518	4
0	5384	8408.852523953997	5
0	5387	8411.224909178541	6
0	5390	8420.666678285319	5
0	5392	8421.601421945619	6
0	5395	8433.633948480865	5
0	5397	8442.729083658031	4
0	5399	8445.588143988419	3
0	5401	8452.680379137763	2
0	5403	8463.555329529606	1
0	5405	8469.791940849108	0
0	5407	8487.699653780394	1
0	5410	8492.03263939581	2
0	5413	8507.720911313886	3
0	5416	8509.936817772817	4
0	5419	8512.211940711776	3
0	5421	8515.103291473122	4
0	5424	8526.180916620927	5
0	5427	8533.702429060379	4
0	5429	8542.076764187371	3
0	5431	8546.751876188195	2
0	5433	8579.420164501101	3
0	5436	8583.105926169026	4
0	5439	8583.26353100344	3
0	5441	8587.23822474024	4
0	5444	8589.204411370951	5
0	5447	8590.989742721218	4
0	5449	8593.770860412329	5
0	5452	8595.963995696571	6
0	5455	8605.293474954416	7
0	5458	8607.735117276839	8
0	5460	8610.188858496735	9
0	5462	8612.498522889267	8
0	5465	8615.459360712547	9
0	5467	8617.441230382002	8
0	5470	8618.924738137403	7
0	5473	8620.114007224888	8
0	5475	8620.500098342862	7
0	5478	8624.867310591965	6
0	5480	8627.05804229213	7
0	5483	8628.544041030088	6
0	5485	8634.484315294561	5
0	5487	8635.971633715297	6
0	5490	8636.593041540685	5
0	5492	8639.913604670205	4
0	5494	8644.739613753017	3
0	5496	8647.383504122003	2
0	5498	8652.977060727283	1
0	5500	8655.912100225752	2
0	5503	8658.137596547932	3
0	5506	8662.958516233564	2
0	5508	8674.645045590891	1
0	5510	8677.558755971643	2
0	5513	8682.284139685994	3
0	5516	8682.638477711324	4
0	5519	8683.447929919712	5
0	5522	8687.94493566652	6
0	5525	8702.51127052881	5
0	5527	8708.946651948741	4
0	5529	8711.818309551853	5
0	5532	8714.02373905961	4
0	5534	8714.75138665237	5
0	5537	8722.360511329655	6
0	5540	8722.843355863365	5
0	5542	8723.597010404745	6
0	5545	8724.805627121533	7
0	5548	8725.108081661004	6
0	5550	8742.676612274536	7
0	5553	8746.961271379683	6
0	5555	8749.175314596157	7
0	5558	8753.523816181088	6
0	5560	8758.093408390412	5
0	5562	8758.597513064536	6
0	5565	8758.823414884117	5
0	5567	8759.214520983064	6
0	5570	8764.881510278476	7
0	5573	8766.535225506391	6
0	5575	8767.635592873176	5
0	5577	8769.649447007537	6
0	5580	8770.779481721208	5
0	5582	8772.019495574322	4
0	5584	8773.547656831418	5
0	5587	8779.013904488351	4
0	5589	8780.070889280597	3
0	5591	8787.969541752627	4
0	5594	8788.559981145909	5
0	5597	8796.88266231749	6
0	5600	8800.449819010469	7
0	5603	8804.506368587538	8
0	5605	8805.932149656069	9
0	5607	8814.205127322154	10
0	5609	8815.765434541465	11
0	5611	8819.18139614764	10
0	5614	8823.26237821525	9
0	5617	8829.9064426996	8
0	5620	8836.757604038358	9
0	5622	8837.855709529442	10
0	5624	8839.913351925136	11
0	5626	8840.697325869719	10
0	5629	8843.072652136794	9
0	5632	8856.340194604274	8
0	5635	8857.137091491014	7
0	5638	8859.641037223781	6
0	5640	8866.324875755187	5
0	5642	8866.66126824768	4
0	5644	8867.696872644176	5
0	5647	8884.832484043255	4
0	5649	8885.883810718183	5
0	5652	8887.425520461421	4
0	5654	8892.673235142817	3
0	5656	8894.125796551204	2
0	5658	8894.571442892049	3
0	5661	8896.926463494901	4
0	5664	8907.262743735669	5
0	5667	8912.367352034096	4
0	5669	8914.323300288377	3
0	5671	8915.042162943055	4
0	5674	8920.271329875578	5
0	5677	8921.551585629058	6
0	5680	8925.426573379911	7
0	5683	8927.021132598994	6
0	5685	8930.87279163365	7
0	5688	8933.599374629627	8
0	5690	8934.129922567359	7
0	5693	8946.345188477171	6
0	5695	8947.767105214271	5
0	5697	8957.216338973713	6
0	5700	8958.954837079785	7
0	5703	8959.311954879899	6
0	5705	8960.903617792752	5
0	5707	8963.748084152368	6
0	5710	8977.682981851163	5
0	5712	8985.259320583524	6
0	5715	8986.404856445846	5
0	5717	8995.687798901948	6
0	5720	8997.134811021683	5
0	5722	9010.294891616015	6
0	5725	9015.490449304122	7
0	5728	9016.852170195291	8
0	5730	9017.31956488171	9
0	5732	9019.562974373293	8
0	5735	9019.787768415714	7
0	5738	9021.388973299402	6
0	5740	9023.271888244691	7
0	5743	9026.170971328079	6
0	5745	9028.509552485615	7
0	5748	9029.408421860176	6
0	5750	9036.003939590591	7
0	5753	9038.457255019154	8
0	5755	9042.502351167844	7
0	5758	9046.10425747761	6
0	5760	9048.78276234183	7
0	5763	9058.936750420415	6
0	5765	9061.439409820162	5
0	5767	9072.416833213628	4
0	5769	9073.041934519301	3
0	5771	9077.295543903188	4
0	5774	9082.100335817556	5
0	5777	9085.685360883113	4
0	5779	9094.499769748019	5
0	5782	9095.043264386139	4
0	5784	9095.814339941197	5
0	5787	9111.950542386953	4
0	5789	9113.064687452271	5
0	5792	9116.644307144696	6
0	5795	9121.09002633422	5
0	5797	9123.561316774461	6
0	5800	9131.802849915488	5
0	5802	9138.370899951973	4
0	5804	9145.752074185706	5
0	5807	9146.438624389898	4
0	5809	9150.934014816688	3
0	5811	9166.170445422183	2
0	5813	9176.667194491231	3
0	5816	9176.863966498068	4
0	5819	9185.914951026502	3
0	5821	9186.628301617405	2
0	5823	9191.699997104349	1
0	5825	9194.673449452858	0
0	5827	9195.049345194582	1
0	5830	9197.889815598329	2
0	5833	9202.848737103796	3
0	5836	9212.36558567772	4
0	5839	9219.597792367337	5
0	5842	9228.271031860134	4
0	5844	9229.976336935805	5
0	5847	9232.789874381869	6
0	5850	9237.503943664881	7
0	5853	9239.102610996445	6
0	5855	9241.854645633239	7
0	5858	9241.960030985258	6
0	5860	9243.650026686156	5
0	5862	9244.099308235243	4
0	5864	9244.620946570623	5
0	5867	9245.007435151535	6
0	5870	9249.135503623951	5
0	5872	9250.435289666418	6
0	5875	9254.90977666193	5
0	5877	9258.53104973961	4
0	5879	9260.789822814557	5
0	5882	9284.105989969395	4
0	5884	9289.991318673823	5
0	5887	9293.354520653172	6
0	5890	9296.880801875988	7
0	5893	9296.993527916681	6
0	5895	9297.429861841735	5
0	5897	9298.491478242017	4
0	5899	9301.505616358527	5
0	5902	9314.058678727931	6
0	5905	9318.116206904094	7
0	5908	9319.30367794754	8
0	5910	9320.456244056898	7
0	5913	9324.151680676187	6
0	5915	9333.865289014301	5
0	5917	9334.877677243427	4
0	5919	9335.173724156939	5
0	5922	9344.009475244045	6
0	5925	9346.611043879934	7
0	5928	9348.898725563723	6
0	5930	9354.745816742862	7
0	5933	9362.307293725558	8
0	5935	9363.998942292239	7
0	5938	9365.957027605272	8
0	5940	9367.935822023435	9
0	5942	9371.009742936644	8
0	5945	9372.605817644314	7
0	5948	9372.998416743977	6
0	5950	9379.001551127996	5
0	5952	9380.507189045387	4
0	5954	9380.651752025436	5
0	5957	9383.578799601179	6
0	5960	9384.47188690724	5
0	5962	9387.591430207585	6
0	5965	9398.197788455676	7
0	5968	9401.172860934118	6
0	5970	9401.694645581843	5
0	5972	9408.630637546144	4
0	5974	9410.344286777575	5
0	5977	9416.280568600138	6
0	5980	9418.307604971661	7
0	5983	9421.320877513478	6
0	5985	9422.651579200686	7
0	5988	9423.050087836204	6
0	5990	9426.117493137899	5
0	5992	9430.78904442305	6
0	5995	9433.235854000165	7
0	5998	9435.168858641902	6
0	6000	9452.568860995426	7
0	6003	9453.10449216985	8
0	6005	9457.470820389677	7
0	6008	9459.233083721961	6
0	6010	9459.997115558779	5
0	6012	9464.262345726524	6
0	6015	9464.523519099442	7
0	6018	9470.094997298566	6
0	6020	9475.402111743718	7
0	6023	9489.311729850036	8
0	6025	9490.079958822389	9
0	6027	9491.03136284487	8
0	6030	9491.082783858556	7
0	6033	9499.372352747653	8
0	6035	9501.056912277958	7
0	6038	9511.497338694341	6
0	6040	9512.23793778686	5
0	6042	9515.304584108777	6
0	6045	9518.342382130186	5
0	6047	9526.892271796937	6
0	6050	9527.098148877577	5
0	6052	9527.429516108242	6
0	6055	9531.299371019399	5
0	6057	9532.055546772189	4
0	6059	9535.12772308951	5
0	6062	9536.211687427085	6
0	6065	9536.679569483015	7
0	6068	9539.104547670635	6
0	6070	9541.787457028027	7
0	6073	9541.803152597549	6
0	6075	9545.644853890462	5
0	6077	9550.018577457877	4
0	6079	9550.824744861096	5
0	6082	9552.044431359533	6
0	6085	9553.35177445151	7
0	6088	9563.321003489644	8
0	6090	9563.967169382242	7
0	6093	9578.603479772352	6
0	6095	9582.799423143241	5
0	6097	9582.900588517717	4
0	6099	9590.14795730134	5
0	6102	9595.399388388597	6
0	6105	9609.096140908547	5
0	6107	9617.209922931431	4
0	6109	9619.165824231144	3
0	6111	9619.748429484154	4
0	6114	9621.002861107532	3
0	6116	9621.196919981415	4
0	6119	9634.300209522519	3
0	6121	9640.439008814654	2
0	6123	9647.655988702218	3
0	6126	9648.404864725565	4
0	6129	9652.964295718551	5
0	6132	9653.342713503913	6
0	6135	9654.740325038746	5
0	6137	9661.616952178239	6
0	6140	9671.059776170731	7
0	6143	9671.714245145844	8
0	6145	9671.980981069163	7
0	6148	9673.473268667659	8
0	6150	9674.804479000969	7
0	6153	9678.555385792641	6
0	6155	9683.006573556324	5
0	6157	9687.895382837687	4
0	6159	9690.550676415007	3
0	6161	9690.933055181065	4
0	6164	9722.466735268966	3
0	6166	9723.627830146232	4
0	6169	9726.135138543098	3
0	6171	9727.005815256691	2
0	6173	9730.82349564396	1
0	6175	9734.002352389089	2
0	6178	9742.372603128537	3
0	6181	9745.478777669947	4
0	6184	9751.48151393797	3
0	6186	9756.395042229431	4
0	6189	9762.057689251072	5
0	6192	9765.716269418266	4
0	6194	9767.051872553246	5
0	6197	9768.805379786997	6
0	6200	9771.379734771248	7
0	6203	9772.847824801356	6
0	6205	9775.047526886559	5
0	6207	9779.325313207884	6
0	6210	9779.693996185206	7
0	6213	9781.787323812895	6
0	6215	9806.066300739239	5
0	6217	9809.791311476925	4
0	6219	9811.455364744832	3
0	6221	9812.743789190475	2
0	6223	9815.794733601728	3
0	6226	9826.650989110001	4
0	6229	9829.204273239978	5
0	6232	9831.186182429318	4
0	6234	9835.266738414645	3
0	6236	9847.972922483027	4
0	6239	9848.432079265842	5
0	6242	9850.859719551589	6
0	6245	9851.213579726328	5
0	6247	9851.654130982901	6
0	6250	9855.816336583589	7
0	6253	9861.247071101522	8
0	6255	9864.338691929352	9
0	6257	9864.762567787233	8
0	6260	9864.980914740004	7
0	6263	9868.168868964976	6
0	6265	9872.945335999321	5
0	6267	9881.650589413116	6
0	6270	9883.524528600351	7
0	6273	9883.935853088645	8
0	6275	9886.776460835754	9
0	6277	9887.278995540962	8
0	6280	9887.974451872618	7
0	6283	9892.29272759776	8
0	6285	9892.514173198282	9
0	6287	9894.401525256209	8
0	6290	9896.583501031882	7
0	6293	9896.861939969044	8
0	6295	9897.659506423114	7
0	6298	9898.201165082435	8
0	6300	9899.360097856857	7
0	6303	9907.369250863467	8
0	6305	9907.960102740689	7
0	6308	9916.664262157872	6
0	6310	9921.525278988266	7
0	6313	9926.867201364349	6
0	6315	9929.266549529217	7
0	6318	9929.65941138526	6
0	6320	9932.377219052602	7
0	6323	9939.739386231752	8
0	6325	9942.173305349208	9
0	6327	9943.26283686957	8
0	6330	9947.881962804993	9
0	6332	9951.105100250057	8
0	6335	9956.921332402933	9
0	6337	9957.430320462266	8
0	6340	9958.903252595116	7
0	6343	9962.845605816931	8
0	6345	9977.211234058763	7
0	6348	9983.769156421299	6
0	6350	9984.699067472731	5
0	6352	9990.941499368694	4
0	6354	10002.177962567421	5
0	6357	10002.98444057527	6
0	6360	10005.210650998722	5
0	6362	10006.44863024375	4
0	6364	10006.92671036338	3
0	6366	10015.811901829435	2
0	6368	10019.896793180048	3
0	6371	10024.911696804028	4
0	6374	10031.685277959553	5
0	6377	10034.182848877329	6
0	6380	10046.166121187494	7
0	6383	10050.076065860595	8
0	6385	10056.952497957744	7
0	6388	10059.842698250754	6
0	6390	10060.767814475707	7
0	6393	10061.076258175437	6
0	6395	10067.6437520789	7
0	6398	10070.966694468767	8
0	6400	10073.287641959091	7
0	6403	10082.220988391703	6
0	6405	10083.241043832474	7
0	6408	10089.447685574624	8
0	6410	10095.984117128943	7
0	6413	10098.894720005222	8
0	6415	10104.264881423113	7
0	6418	10105.398239533493	8
0	6420	10106.227863411952	7
0	6423	10107.234406755974	6
0	6425	10107.429743231127	5
0	6427	10107.627818599762	6
0	6430	10111.271299945416	7
0	6433	10114.298837921197	6
0	6435	10124.219741190562	5
0	6437	10127.40615982818	4
0	6439	10127.436834946789	5
0	6442	10127.970923314394	4
0	6444	10143.038189219264	3
0	6446	10148.091035201652	4
0	6449	10149.338046210152	3
0	6451	10154.465893059688	4
0	6454	10158.490620956655	5
0	6457	10159.886043123748	6
0	6460	10164.907322553516	7
0	6463	10165.725367588626	6
0	6465	10172.489748622691	5
0	6467	10173.000279907701	6
0	6470	10184.350845511706	7
0	6473	10190.094823528354	6
0	6475	10194.033690816357	5
0	6477	10201.31096065485	6
0	6480	10206.479234188849	7
0	6483	10207.725073826207	6
0	6485	10210.244302825109	5
0	6487	10213.552812192696	6
0	6490	10217.689349967361	7
0	6493	10217.736615293957	6
0	6495	10219.432330133946	5
0	6497	10220.450393884592	4
0	6499	10232.532798249376	5
0	6502	10232.700729228231	6
0	6505	10244.202081687132	5
0	6507	10248.071266479925	6
0	6510	10254.097652589765	7
0	6513	10260.434085826736	6
0	6515	10269.878314749083	7
0	6518	10275.1024087931	6
0	6520	10283.087334842481	7
0	6523	10283.797146340263	8
0	6525	10284.042903969561	7
0	6528	10284.565882071577	6
0	6530	10299.114421051677	7
0	6533	10300.088542877295	6
0	6535	10302.650297469707	7
0	6538	10306.573248037557	6
0	6540	10306.710495813388	7
0	6543	10308.587654339642	8
0	6545	10312.102449574875	9
0	6547	10312.417282439949	8
0	6550	10312.898120179979	7
0	6553	10316.22030840178	6
0	6555	10324.605988964811	5
0	6557	10328.574593608756	4
0	6559	10340.619895787281	3
0	6561	10344.875000429843	4
0	6564	10354.311547623294	3
0	6566	10354.890084434368	4
0	6569	10360.331638443495	3
0	6571	10363.805158491646	4
0	6574	10365.67776298206	5
0	6577	10366.448596371421	4
0	6579	10366.649401611394	3
0	6581	10377.684373491366	2
0	6583	10384.93341127755	3
0	6586	10388.574265865517	4
0	6589	10393.746149296336	3
0	6591	10395.070773818437	4
0	6594	10397.273029942934	5
0	6597	10399.741298429865	6
0	6600	10401.415913713367	7
0	6603	10402.34333600733	8
0	6605	10409.764014814788	9
0	6607	10412.651323877512	8
0	6610	10414.10385267025	7
0	6613	10414.600257492624	8
0	6615	10417.818246692613	7
0	6618	10423.40321989223	6
0	6620	10428.364125422172	7
0	6623	10430.46283524722	6
0	6625	10435.939637691211	7
0	6628	10436.809164213446	6
0	6630	10438.32545248438	5
0	6632	10439.49235358948	6
0	6635	10448.957835476649	7
0	6638	10450.773411941682	6
0	6640	10452.42588528401	7
0	6643	10457.018080023069	6
0	6645	10460.229693267937	5
0	6647	10464.199279662871	4
0	6649	10465.40999626803	3
0	6651	10469.232764236418	2
0	6653	10471.025780532548	1
0	6655	10482.522866028846	0
0	6657	10483.181710984447	1
0	6660	10483.181897312599	2
0	6663	10484.071680754175	3
0	6666	10485.962823237533	4
0	6669	10490.347573819365	5
0	6672	10492.40619313734	4
0	6674	10492.977637116288	5
0	6677	10500.432289019127	4
0	6679	10500.715189976163	3
0	6681	10512.626618103913	4
0	6684	10512.869302530526	3
0	6686	10516.665201284825	2
0	6688	10520.470264839318	1
0	6690	10525.318433912782	2
0	6693	10531.21788020013	3
0	6696	10534.553429141729	2
0	6698	10539.190534488915	3
0	6701	10548.32979909779	4
0	6704	10559.531743694029	3
0	6706	10564.264690418857	2
0	6708	10565.816952352959	3
0	6711	10575.423177017851	2
0	6713	10580.923130946973	3
0	6716	10597.878123280854	2
0	6718	10600.215198428075	3
0	6721	10605.892671761465	4
0	6724	10606.566001103506	5
0	6727	10607.181626956264	4
0	6729	10611.015586347911	3
0	6731	10620.551757082024	4
0	6734	10623.322364037965	3
0	6736	10631.401895495371	2
0	6738	10632.807205260023	1
0	6740	10633.749532541787	0
0	6742	10635.916867273779	1
0	6745	10637.860298402641	2
0	6748	10639.12107823043	1
0	6750	10644.863155000549	0
0	6752	10659.124346736233	1
0	6755	10668.906356752496	2
0	6758	10669.443563986242	1
0	6760	10694.862555200154	2
0	6763	10698.096480118423	3
0	6766	10698.510335684613	4
0	6769	10704.13045035586	3
0	6771	10711.499586362081	4
0	6774	10713.426537908147	3
0	6776	10726.001820947304	2
0	6778	10726.745126988069	1
0	6780	10735.007877608716	2
0	6783	10738.434194201137	3
0	6786	10739.710487725517	4
0	6789	10748.980502145974	3
0	6791	10749.294651672666	4
0	6794	10759.098389426802	3
0	6796	10763.02398906301	2
0	6798	10772.743066808793	3
0	6801	10776.771802921685	2
0	6803	10786.732399934554	3
0	6806	10795.17896650109	2
0	6808	10798.867954294668	3
0	6811	10810.591658927594	2
0	6813	10813.621911767184	3
0	6816	10814.179526202262	4
0	6819	10816.460663105232	5
0	6822	10818.315235830515	6
0	6825	10826.125132279774	5
0	6827	10838.793633891674	4
0	6829	10847.194259013372	3
0	6831	10849.452911427213	2
0	6833	10861.45863335455	3
0	6836	10861.645056151542	4
0	6839	10861.679341070041	5
0	6842	10863.31483078474	4
0	6844	10864.156415709024	3
0	6846	10867.791200948454	4
0	6849	10869.022043148847	3
0	6851	10871.970777531849	4
0	6854	10873.775192786233	5
0	6857	10876.978807177779	6
0	6860	10880.747111259864	5
0	6862	10885.69264262159	6
0	6865	10895.45295024384	5
0	6867	10896.863140875603	4
0	6869	10898.590204655076	3
0	6871	10910.199693288301	2
0	6873	10910.3767061168	3
0	6876	10912.368375252653	4
0	6879	10916.782187123072	3
0	6881	10917.756049080522	2
0	6883	10919.037139219159	3
0	6886	10923.481235602542	2
0	6888	10924.417822159728	3
0	6891	10930.52422023913	2
0	6893	10935.317216935887	3
0	6896	10936.16162990098	2
0	6898	10939.903613619434	3
0	6901	10943.506088681828	4
0	6904	10945.26653878878	5
0	6907	10946.911870262141	6
0	6910	10947.700827999425	5
0	6912	10952.449665799942	6
0	6915	10952.665471057899	7
0	6918	10963.141804405924	6
0	6920	10966.604037955566	7
0	6923	10967.715860017286	8
0	6925	10980.987106642739	7
0	6928	10982.104399621646	6
0	6930	10982.364834823786	5
0	6932	10989.964660009089	6
0	6935	10993.327419418758	7
0	6938	10999.909738762684	6
0	6940	11001.694061054605	7
0	6943	11007.185791060702	6
0	6945	11011.421614026964	5
0	6947	11012.095758246087	6
0	6950	11013.361741849934	5
0	6952	11016.229965290452	6
0	6955	11021.199424249356	7
0	6958	11022.034229457574	6
0	6960	11027.664221917061	5
0	6962	11030.558021067258	6
0	6965	11040.21865068177	7
0	6968	11043.566534251312	8
0	6970	11050.514323736737	9
0	6972	11061.213515675418	8
0	6975	11061.289282132827	9
0	6977	11064.586121813504	8
0	6980	11064.624950651783	9
0	6982	11070.136717034832	10
0	6984	11073.079185317617	9
0	6987	11075.48015598419	10
0	6989	11077.539458153191	9
0	6992	11078.719981519905	8
0	6995	11082.176170496512	7
0	6998	11083.232197038812	8
0	7000	11085.8092979581	7
0	7003	11088.728596490118	8
0	7005	11091.072975207865	7
0	7008	11091.971510198176	6
0	7010	11095.576790008423	7
0	7013	11097.06992208046	8
0	7015	11098.625769232526	7
0	7018	11099.001055409871	6
0	7020	11099.126881990328	5
0	7022	11102.220188077864	6
0	7025	11103.073284700028	5
0	7027	11107.896880766169	6
0	7030	11110.32596675626	7
0	7033	11114.10206967316	6
0	7035	11118.351295292393	5
0	7037	11125.448913174565	4
0	7039	11130.925791176566	5
0	7042	11131.230453955166	4
0	7044	11133.650590253625	5
0	7047	11140.444639986309	4
0	7049	11141.304473910496	5
0	7052	11143.443420735236	4
0	7054	11147.086187918467	5
0	7057	11148.141272256384	4
0	7059	11161.282304935971	5
0	7062	11163.197817081792	6
0	7065	11165.76832150422	5
0	7067	11166.494467566139	4
0	7069	11167.783130508627	3
0	7071	11174.681430652914	2
0	7073	11187.411993597343	3
0	7076	11196.014740826746	4
0	7079	11196.038724565175	3
0	7081	11196.052415226132	4
0	7084	11197.900612349289	5
0	7087	11199.437858561431	4
0	7089	11200.114022408738	3
0	7091	11200.351563585602	2
0	7093	11206.552916372425	3
0	7096	11216.449449320772	4
0	7099	11220.329344829948	5
0	7102	11220.650732262327	4
0	7104	11226.220453795831	5
0	7107	11227.644436377223	4
0	7109	11244.960479647117	5
0	7112	11248.048177758591	4
0	7114	11252.146158276241	3
0	7116	11252.856309311924	2
0	7118	11259.375360845138	3
0	7121	11266.879397240757	4
0	7124	11284.731468216729	3
0	7126	11301.484052674315	4
0	7129	11304.114419104296	3
0	7131	11305.11897626985	4
0	7134	11305.208213860801	5
0	7137	11306.212369802453	6
0	7140	11307.472811899492	7
0	7143	11307.882668494297	8
0	7145	11315.99423042361	7
0	7148	11318.254766943577	8
0	7150	11325.872413420029	7
0	7153	11328.363664197456	8
0	7155	11329.200663000934	7
0	7158	11333.239174951909	8
0	7160	11342.389476854645	7
0	7163	11351.734268801361	6
0	7165	11351.882586780155	5
0	7167	11357.030375573399	6
0	7170	11357.43149666933	5
0	7172	11360.956842894475	6
0	7175	11365.044091030912	7
0	7178	11367.188919759355	8
0	7180	11369.840873900858	9
0	7182	11370.46584967753	10
0	7184	11371.09369180186	11
0	7186	11379.093537976924	10
0	7189	11379.428863075528	9
0	7192	11379.528039170124	8
0	7195	11380.344515016953	9
0	7197	11380.508450088384	8
0	7200	11383.514766410289	7
0	7203	11391.367793063391	8
0	7205	11394.330197128649	7
0	7208	11395.782227876687	8
0	7210	11396.799436179886	9
0	7212	11396.941118542333	8
0	7215	11401.035648376104	7
0	7218	11401.545274277833	6
0	7220	11403.521235351643	5
0	7222	11406.095093776587	6
0	7225	11407.732967554423	5
0	7227	11407.858065291557	4
0	7229	11412.563712579292	5
0	7232	11419.092335868122	4
0	7234	11419.707264260268	3
0	7236	11432.253716373084	2
0	7238	11434.563661741381	3
0	7241	11435.858551003656	2
0	7243	11440.786339014444	3
0	7246	11441.150833437794	4
0	7249	11443.704266455925	5
0	7252	11453.240095942502	4
0	7254	11473.074929997828	5
0	7257	11479.487665046478	4
0	7259	11483.970438145856	3
0	7261	11489.234641303596	4
0	7264	11491.269762630187	5
0	7267	11495.478108402598	4
0	7269	11495.927904257988	5
0	7272	11496.656734928926	4
0	7274	11499.003733292628	5
0	7277	11503.928396473524	6
0	7280	11509.262020691438	5
0	7282	11512.551328535977	6
0	7285	11524.506082674297	5
0	7287	11525.592304144442	4
0	7289	11526.045810212328	5
0	7292	11527.096940549729	6
0	7295	11529.454339289556	5
0	7297	11537.765462814481	4
0	7299	11540.214348800673	5
0	7302	11549.287952658332	6
0	7305	11552.302014046812	5
0	7307	11552.731661500111	4
0	7309	11553.513322817528	5
0	7312	11562.794797972478	4
0	7314	11562.818188332808	3
0	7316	11570.605119902508	4
0	7319	11573.079094440925	5
0	7322	11577.260769702723	6
0	7325	11581.831672734705	5
0	7327	11583.213527944905	4
0	7329	11587.936581427172	5
0	7332	11588.275760927827	6
0	7335	11590.654769593443	5
0	7337	11594.303815826163	6
0	7340	11603.654310897347	5
0	7342	11604.783237997482	4
0	7344	11606.461250047393	3
0	7346	11606.573294652587	4
0	7349	11609.027516104173	3
0	7351	11616.302798949628	4
0	7354	11618.046222593613	3
0	7356	11632.084587248005	4
0	7359	11643.502458380065	3
0	7361	11645.93576593677	2
0	7363	11647.603423343132	1
0	7365	11657.891275521162	0
0	7367	11658.727969871407	1
0	7370	11661.385058502202	2
0	7373	11672.780062826231	3
0	7376	11674.651010197348	4
0	7379	11676.261983231391	5
0	7382	11680.359635686593	6
0	7385	11685.310162289025	7
0	7388	11690.288309069448	8
0	7390	11705.667947339373	7
0	7393	11706.892669037529	8
0	7395	11712.073099762326	9
0	7397	11714.453182100295	10
0	7399	11721.120854294202	9
0	7402	11727.308562235873	8
0	7405	11735.995621764755	9
0	7407	11737.006138327676	8
0	7410	11741.211859547879	7
0	7413	11748.157457885974	8
0	7415	11748.29846029618	7
0	7418	11750.542969763658	6
0	7420	11754.073975905974	7
0	7423	11755.77920703898	6
0	7425	11760.890005735763	7
0	7428	11763.221793353407	6
0	7430	11784.31506893732	5
0	7432	11790.439612786739	4
0	7434	11795.154834433148	5
0	7437	11797.807711249868	6
0	7440	11801.898835024916	5
0	7442	11803.647803449998	4
0	7444	11804.499416101958	5
0	7447	11809.835690046889	4
0	7449	11814.679650421861	5
0	7452	11818.198540563901	6
0	7455	11818.467631330385	5
0	7457	11818.933334299871	6
0	7460	11825.901398501014	7
0	7463	11828.26792652469	8
0	7465	11833.686494568565	7
0	7468	11834.039180692274	8
0	7470	11836.129289260708	9
0	7472	11844.291562885461	10
0	7474	11846.38183374808	11
0	7476	11847.45037696877	10
0	7479	11850.051883813912	9
0	7482	11858.119247786091	8
0	7485	11858.943421683484	9
0	7487	11861.503121811568	10
0	7489	11861.580819864597	9
0	7492	11869.946395333739	8
0	7495	11880.977692325888	9
0	7497	11883.580051668636	10
0	7499	11890.887591620946	9
0	7502	11894.020397152153	8
0	7505	11894.503761114919	7
0	7508	11894.761809019189	8
0	7510	11900.626393904758	7
0	7513	11902.333063867595	6
0	7515	11903.52153052871	5
0	7517	11910.244397339826	4
0	7519	11910.783202475945	3
0	7521	11921.323929305573	4
0	7524	11921.666395655488	3
0	7526	11924.583726611179	4
0	7529	11928.137461141537	5
0	7532	11928.718483216254	4
0	7534	11935.823644566401	3
0	7536	11940.861804385682	2
0	7538	11946.171743538616	3
0	7541	11949.419991670749	4
0	7544	11954.869179664319	5
0	7547	11962.888213561555	4
0	7549	11965.467631260383	5
0	7552	11973.092111940829	4
0	7554	11976.938048761645	5
0	7557	11979.059798715876	4
0	7559	11980.664524410155	3
0	7561	11981.899081288784	4
0	7564	11983.004594383773	3
0	7566	11993.458652287332	2
0	7568	12003.083447974038	3
0	7571	12003.88774309778	2
0	7573	12008.522988238194	3
0	7576	12012.085974297967	4
0	7579	12026.254813684418	5
0	7582	12031.177278055214	6
0	7585	12032.342174741361	7
0	7588	12033.526502118835	6
0	7590	12037.489748658768	5
0	7592	12044.602031425698	4
0	7594	12045.416003634789	3
0	7596	12056.392012926505	4
0	7599	12057.695338213345	3
0	7601	12062.246181080342	4
0	7604	12063.88195584653	5
0	7607	12064.200069508351	6
0	7610	12065.707851842605	5
0	7612	12081.226572752578	4
0	7614	12088.580265936761	3
0	7616	12095.292978537983	4
0	7619	12097.632855033893	5
0	7622	12099.600362477407	4
0	7624	12102.074678902351	3
0	7626	12109.736089164662	2
0	7628	12119.970959395975	1
0	7630	12121.912471750792	0
0	7632	12129.719601229928	1
0	7635	12131.910994171754	2
0	7638	12136.961696955737	3
0	7641	12140.413469861378	2
0	7643	12140.635842799443	3
0	7646	12142.18522008965	4
0	7649	12145.391495179379	5
0	7652	12147.184334242127	6
0	7655	12150.210717903747	7
0	7658	12156.546995275008	8
0	7660	12159.476424791298	7
0	7663	12164.929937826566	6
0	7665	12170.029807246629	5
0	7667	12170.463526188409	4
0	7669	12172.923773000383	3
0	7671	12176.37860188096	2
0	7673	12177.037632392203	1
0	7675	12186.832620788653	0
0	7677	12205.188650281705	1
0	7680	12212.607246817807	2
0	7683	12219.481566591055	3
0	7686	12225.201079181681	2
0	7688	12229.27747167618	1
0	7690	12233.5316685315	2
0	7693	12237.284673429298	3
0	7696	12242.756430233825	2
0	7698	12246.298691753349	3
0	7701	12250.491468918546	2
0	7703	12252.233629065935	3
0	7706	12257.001822181046	4
0	7709	12257.107509916688	3
0	7711	12266.269619655925	2
0	7713	12277.6141381303	3
0	7716	12281.971423527658	4
0	7719	12282.250525282773	3
0	7721	12294.224373526223	4
0	7724	12299.621347096401	5
0	7727	12304.709288218014	6
0	7730	12308.128229740397	7
0	7733	12309.415572360555	8
0	7735	12310.918253296249	7
0	7738	12311.48266704472	8
0	7740	12312.08947860123	9
0	7742	12317.408575371203	8
0	7745	12332.49419731851	7
0	7748	12339.672944118532	6
0	7750	12343.359940113161	7
0	7753	12343.378483432826	8
0	7755	12344.22493643955	7
0	7758	12349.33119602763	6
0	7760	12349.86686687166	5
0	7762	12351.333705756841	6
0	7765	12353.170716482658	5
0	7767	12356.333996613242	4
0	7769	12357.875274707371	3
0	7771	12362.598568701697	2
0	7773	12370.199527060276	3
0	7776	12370.60393734511	4
0	7779	12372.032707899334	3
0	7781	12372.070722629013	4
0	7784	12381.245562157205	5
0	7787	12392.130162660666	6
0	7790	12392.996868156832	5
0	7792	12395.730587460219	6
0	7795	12397.443740681322	5
0	7797	12400.320421566237	4
0	7799	12408.589422623948	3
0	7801	12412.221907982576	2
0	7803	12414.858839997186	1
0	7805	12426.4694935148	2
0	7808	12427.819120081869	3
0	7811	12434.820647215086	4
0	7814	12438.304060989007	3
0	7816	12446.982890440424	4
0	7819	12452.491409575542	3
0	7821	12462.367512818005	4
0	7824	12464.339448215887	3
0	7826	12468.791924293671	4
0	7829	12482.582418148607	5
0	7832	12484.082651284563	6
0	7835	12498.362284750362	5
0	7837	12505.01461296738	4
0	7839	12506.812699743857	5
0	7842	12511.707539859456	4
0	7844	12511.9401517091	3
0	7846	12514.837916136235	4
0	7849	12525.548536624936	5
0	7852	12527.199400113576	6
0	7855	12530.318806192932	5
0	7857	12531.41936541143	6
0	7860	12550.055439903863	7
0	7863	12553.000591386525	8
0	7865	12553.402388433555	9
0	7867	12555.754900834325	8
0	7870	12559.40026139558	9
0	7872	12562.359485007976	8
0	7875	12562.816910623467	7
0	7878	12566.923935717153	6
0	7880	12567.445584177472	7
0	7883	12569.235786035107	6
0	7885	12570.575016697775	7
0	7888	12570.901355913379	6
0	7890	12574.462709716299	7
0	7893	12580.160812358407	6
0	7895	12582.734790199675	5
0	7897	12585.435654472248	4
0	7899	12591.323328169043	3
0	7901	12597.63696240242	4
0	7904	12597.849967595068	5
0	7907	12598.579308453349	6
0	7910	12603.649967681962	5
0	7912	12604.19123084449	6
0	7915	12605.943699084419	7
0	7918	12614.630996285708	6
0	7920	12616.884115118665	7
0	7923	12618.329546027738	6
0	7925	12619.269630593709	5
0	7927	12621.014146866589	6
0	7930	12626.140932471903	5
0	7932	12628.838736085898	6
0	7935	12635.219600604027	7
0	7938	12635.799156905611	8
0	7940	12642.826731690391	9
0	7942	12643.360204163568	10
0	7944	12654.225644880586	9
0	7947	12656.801218809653	8
0	7950	12657.713174804077	7
0	7953	12658.074511133923	8
0	7955	12659.519538675668	7
0	7958	12662.407005036861	6
0	7960	12662.704561306799	7
0	7963	12665.556241284684	8
0	7965	12665.790457832826	9
0	7967	12665.791838038305	8
0	7970	12677.997373507731	7
0	7973	12678.86326428457	8
0	7975	12678.994707232865	7
0	7978	12686.259436491534	8
0	7980	12689.197027925147	9
0	7982	12690.593915516212	8
0	7985	12696.266375896224	9
0	7987	12699.068830716615	10
0	7989	12705.981095381598	9
0	7992	12708.011217230528	8
0	7995	12711.023266644373	7
0	7998	12715.197434154524	8
0	8000	12715.953114932984	7
0	8003	12725.583588357963	6
0	8005	12729.312264222587	5
0	8007	12730.001712672057	6
0	8010	12735.054340187689	5
0	8012	12737.58477551043	6
0	8015	12738.78618160783	7
0	8018	12753.907225103463	8
0	8020	12760.665159924838	7
0	8023	12763.882733495712	6
0	8025	12775.413719605219	5
0	8027	12775.813805090362	6
[...]
1	7084	11197.900612349289	0
1	7087	11199.437858561431	0
1	7089	11200.114022408738	0
1	7091	11200.351563585602	0
1	7093	11206.552916372425	0
1	7096	11216.449449320772	0
1	7099	11220.329344829948	0
1	7102	11220.650732262327	0
1	7104	11226.220453795831	0
1	7107	11227.644436377223	0
1	7109	11244.960479647117	0
1	7112	11248.048177758591	0
1	7114	11252.146158276241	0
1	7116	11252.856309311924	0
1	7118	11259.375360845138	0
1	7121	11266.879397240757	0
1	7124	11284.731468216729	0
1	7126	11301.484052674315	0
1	7129	11304.114419104296	0
1	7131	11305.11897626985	0
1	7134	11305.208213860801	0
1	7137	11306.212369802453	0
1	7140	11307.472811899492	0
1	7143	11307.882668494297	1
1	7145	11315.99423042361	0
1	7148	11318.254766943577	1
1	7150	11325.872413420029	0
1	7153	11328.363664197456	1
1	7155	11329.200663000934	0
1	7158	11333.239174951909	1
1	7160	11342.389476854645	0
1	7163	11351.734268801361	0
1	7165	11351.882586780155	0
1	7167	11357.030375573399	0
1	7170	11357.43149666933	0
1	7172	11360.956842894475	0
1	7175	11365.044091030912	0
1	7178	11367.188919759355	1
1	7180	11369.840873900858	2
1	7182	11370.46584967753	3
1	7184	11371.09369180186	4
1	7186	11379.093537976924	3
1	7189	11379.428863075528	2
1	7192	11379.528039170124	1
1	7195	11380.344515016953	2
1	7197	11380.508450088384	1
1	7200	11383.514766410289	0
1	7203	11391.367793063391	1
1	7205	11394.330197128649	0
1	7208	11395.782227876687	1
1	7210	11396.799436179886	2
1	7212	11396.941118542333	1
1	7215	11401.035648376104	0
1	7218	11401.545274277833	0
1	7220	11403.521235351643	0
1	7222	11406.095093776587	0
1	7225	11407.732967554423	0
1	7227	11407.858065291557	0
1	7229	11412.563712579292	0
1	7232	11419.092335868122	0
1	7234	11419.707264260268	0
1	7236	11432.253716373084	0
1	7238	11434.563661741381	0
1	7241	11435.858551003656	0
1	7243	11440.786339014444	0
1	7246	11441.150833437794	0
1	7249	11443.704266455925	0
1	7252	11453.240095942502	0
1	7254	11473.074929997828	0
1	7257	11479.487665046478	0
1	7259	11483.970438145856	0
1	7261	11489.234641303596	0
1	7264	11491.269762630187	0
1	7267	11495.478108402598	0
1	7269	11495.927904257988	0
1	7272	11496.656734928926	0
1	7274	11499.003733292628	0
1	7277	11503.928396473524	0
1	7280	11509.262020691438	0
1	7282	11512.551328535977	0
1	7285	11524.506082674297	0
1	7287	11525.592304144442	0
1	7289	11526.045810212328	0
1	7292	11527.096940549729	0
1	7295	11529.454339289556	0
1	7297	11537.765462814481	0
1	7299	11540.214348800673	0
1	7302	11549.287952658332	0
1	7305	11552.302014046812	0
1	7307	11552.731661500111	0
1	7309	11553.513322817528	0
1	7312	11562.794797972478	0
1	7314	11562.818188332808	0
1	7316	11570.605119902508	0
1	7319	11573.079094440925	0
1	7322	11577.260769702723	0
1	7325	11581.831672734705	0
1	7327	11583.213527944905	0
1	7329	11587.936581427172	0
1	7332	11588.275760927827	0
1	7335	11590.654769593443	0
1	7337	11594.303815826163	0
1	7340	11603.654310897347	0
1	7342	11604.783237997482	0
1	7344	11606.461250047393	0
1	7346	11606.573294652587	0
1	7349	11609.027516104173	0
1	7351	11616.302798949628	0
1	7354	11618.046222593613	0
1	7356	11632.084587248005	0
1	7359	11643.502458380065	0
1	7361	11645.93576593677	0
1	7363	11647.603423343132	0
1	7365	11657.891275521162	0
1	7367	11658.727969871407	0
1	7370	11661.385058502202	0
1	7373	11672.780062826231	0
1	7376	11674.651010197348	0
1	7379	11676.261983231391	0
1	7382	11680.359635686593	0
1	7385	11685.310162289025	0
1	7388	11690.288309069448	1
1	7390	11705.667947339373	0
1	7393	11706.892669037529	1
1	7395	11712.073099762326	2
1	7397	11714.453182100295	3
1	7399	11721.120854294202	2
1	7402	11727.308562235873	1
1	7405	11735.995621764755	2
1	7407	11737.006138327676	1
1	7410	11741.211859547879	0
1	7413	11748.157457885974	1
1	7415	11748.29846029618	0
1	7418	11750.542969763658	0
1	7420	11754.073975905974	0
1	7423	11755.77920703898	0
1	7425	11760.890005735763	0
1	7428	11763.221793353407	0
1	7430	11784.31506893732	0
1	7432	11790.439612786739	0
1	7434	11795.154834433148	0
1	7437	11797.807711249868	0
1	7440	11801.898835024916	0
1	7442	11803.647803449998	0
1	7444	11804.499416101958	0
1	7447	11809.835690046889	0
1	7449	11814.679650421861	0
1	7452	11818.198540563901	0
1	7455	11818.467631330385	0
1	7457	11818.933334299871	0
1	7460	11825.901398501014	0
1	7463	11828.26792652469	1
1	7465	11833.686494568565	0
1	7468	11834.039180692274	1
1	7470	11836.129289260708	2
1	7472	11844.291562885461	3
1	7474	11846.38183374808	4
1	7476	11847.45037696877	3
1	7479	11850.051883813912	2
1	7482	11858.119247786091	1
1	7485	11858.943421683484	2
1	7487	11861.503121811568	3
1	7489	11861.580819864597	2
1	7492	11869.946395333739	1
1	7495	11880.977692325888	2
1	7497	11883.580051668636	3
1	7499	11890.887591620946	2
1	7502	11894.020397152153	1
1	7505	11894.503761114919	0
1	7508	11894.761809019189	1
1	7510	11900.626393904758	0
1	7513	11902.333063867595	0
1	7515	11903.52153052871	0
1	7517	11910.244397339826	0
1	7519	11910.783202475945	0
1	7521	11921.323929305573	0
1	7524	11921.666395655488	0
1	7526	11924.583726611179	0
1	7529	11928.137461141537	0
1	7532	11928.718483216254	0
1	7534	11935.823644566401	0
1	7536	11940.861804385682	0
1	7538	11946.171743538616	0
1	7541	11949.419991670749	0
1	7544	11954.869179664319	0
1	7547	11962.888213561555	0
1	7549	11965.467631260383	0
1	7552	11973.092111940829	0
1	7554	11976.938048761645	0
1	7557	11979.059798715876	0
1	7559	11980.664524410155	0
1	7561	11981.899081288784	0
1	7564	11983.004594383773	0
1	7566	11993.458652287332	0
1	7568	12003.083447974038	0
1	7571	12003.88774309778	0
1	7573	12008.522988238194	0
1	7576	12012.085974297967	0
1	7579	12026.254813684418	0
1	7582	12031.177278055214	0
1	7585	12032.342174741361	0
1	7588	12033.526502118835	0
1	7590	12037.489748658768	0
1	7592	12044.602031425698	0
1	7594	12045.416003634789	0
1	7596	12056.392012926505	0
1	7599	12057.695338213345	0
1	7601	12062.246181080342	0
1	7604	12063.88195584653	0
1	7607	12064.200069508351	0
1	7610	12065.707851842605	0
1	7612	12081.226572752578	0
1	7614	12088.580265936761	0
1	7616	12095.292978537983	0
1	7619	12097.632855033893	0
1	7622	12099.600362477407	0
1	7624	12102.074678902351	0
1	7626	12109.736089164662	0
1	7628	12119.970959395975	0
1	7630	12121.912471750792	0
1	7632	12129.719601229928	0
1	7635	12131.910994171754	0
1	7638	12136.961696955737	0
1	7641	12140.413469861378	0
1	7643	12140.635842799443	0
1	7646	12142.18522008965	0
1	7649	12145.391495179379	0
1	7652	12147.184334242127	0
1	7655	12150.210717903747	0
1	7658	12156.546995275008	1
1	7660	12159.476424791298	0
1	7663	12164.929937826566	0
1	7665	12170.029807246629	0
1	7667	12170.463526188409	0
1	7669	12172.923773000383	0
1	7671	12176.37860188096	0
1	7673	12177.037632392203	0
1	7675	12186.832620788653	0
1	7677	12205.188650281705	0
1	7680	12212.607246817807	0
1	7683	12219.481566591055	0
1	7686	12225.201079181681	0
1	7688	12229.27747167618	0
1	7690	12233.5316685315	0
1	7693	12237.284673429298	0
1	7696	12242.756430233825	0
1	7698	12246.298691753349	0
1	7701	12250.491468918546	0
1	7703	12252.233629065935	0
1	7706	12257.001822181046	0
1	7709	12257.107509916688	0
1	7711	12266.269619655925	0
1	7713	12277.6141381303	0
1	7716	12281.971423527658	0
1	7719	12282.250525282773	0
1	7721	12294.224373526223	0
1	7724	12299.621347096401	0
1	7727	12304.709288218014	0
1	7730	12308.128229740397	0
1	7733	12309.415572360555	1
1	7735	12310.918253296249	0
1	7738	12311.48266704472	1
1	7740	12312.08947860123	2
1	7742	12317.408575371203	1
1	7745	12332.49419731851	0
1	7748	12339.672944118532	0
1	7750	12343.359940113161	0
1	7753	12343.378483432826	1
1	7755	12344.22493643955	0
1	7758	12349.33119602763	0
1	7760	12349.86686687166	0
1	7762	12351.333705756841	0
1	7765	12353.170716482658	0
1	7767	12356.333996613242	0
1	7769	12357.875274707371	0
1	7771	12362.598568701697	0
1	7773	12370.199527060276	0
1	7776	12370.60393734511	0
1	7779	12372.032707899334	0
1	7781	12372.070722629013	0
1	7784	12381.245562157205	0
1	7787	12392.130162660666	0
1	7790	12392.996868156832	0
1	7792	12395.730587460219	0
1	7795	12397.443740681322	0
1	7797	12400.320421566237	0
1	7799	12408.589422623948	0
1	7801	12412.221907982576	0
1	7803	12414.858839997186	0
1	7805	12426.4694935148	0
1	7808	12427.819120081869	0
1	7811	12434.820647215086	0
1	7814	12438.304060989007	0
1	7816	12446.982890440424	0
1	7819	12452.491409575542	0
1	7821	12462.367512818005	0
1	7824	12464.339448215887	0
1	7826	12468.791924293671	0
1	7829	12482.582418148607	0
1	7832	12484.082651284563	0
1	7835	12498.362284750362	0
1	7837	12505.01461296738	0
1	7839	12506.812699743857	0
1	7842	12511.707539859456	0
1	7844	12511.9401517091	0
1	7846	12514.837916136235	0
1	7849	12525.548536624936	0
1	7852	12527.199400113576	0
1	7855	12530.318806192932	0
1	7857	12531.41936541143	0
1	7860	12550.055439903863	0
1	7863	12553.000591386525	1
1	7865	12553.402388433555	2
1	7867	12555.754900834325	1
1	7870	12559.40026139558	2
1	7872	12562.359485007976	1
1	7875	12562.816910623467	0
1	7878	12566.923935717153	0
1	7880	12567.445584177472	0
1	7883	12569.235786035107	0
1	7885	12570.575016697775	0
1	7888	12570.901355913379	0
1	7890	12574.462709716299	0
1	7893	12580.160812358407	0
1	7895	12582.734790199675	0
1	7897	12585.435654472248	0
1	7899	12591.323328169043	0
1	7901	12597.63696240242	0
1	7904	12597.849967595068	0
1	7907	12598.579308453349	0
1	7910	12603.649967681962	0
1	7912	12604.19123084449	0
1	7915	12605.943699084419	0
1	7918	12614.630996285708	0
1	7920	12616.884115118665	0
1	7923	12618.329546027738	0
1	7925	12619.269630593709	0
1	7927	12621.014146866589	0
1	7930	12626.140932471903	0
1	7932	12628.838736085898	0
1	7935	12635.219600604027	0
1	7938	12635.799156905611	1
1	7940	12642.826731690391	2
1	7942	12643.360204163568	3
1	7944	12654.225644880586	2
1	7947	12656.801218809653	1
1	7950	12657.713174804077	0
1	7953	12658.074511133923	1
1	7955	12659.519538675668	0
1	7958	12662.407005036861	0
1	7960	12662.704561306799	0
1	7963	12665.556241284684	1
1	7965	12665.790457832826	2
1	7967	12665.791838038305	1
1	7970	12677.997373507731	0
1	7973	12678.86326428457	1
1	7975	12678.994707232865	0
1	7978	12686.259436491534	1
1	7980	12689.197027925147	2
1	7982	12690.593915516212	1
1	7985	12696.266375896224	2
1	7987	12699.068830716615	3
1	7989	12705.981095381598	2
1	7992	12708.011217230528	1
1	7995	12711.023266644373	0
1	7998	12715.197434154524	1
1	8000	12715.953114932984	0
1	8003	12725.583588357963	0
1	8005	12729.312264222587	0
1	8007	12730.001712672057	0
1	8010	12735.054340187689	0
1	8012	12737.58477551043	0
1	8015	12738.78618160783	0
1	8018	12753.907225103463	1
1	8020	12760.665159924838	0
1	8023	12763.882733495712	0
1	8025	12775.413719605219	0
1	8027	12775.813805090362	0
1	8030	12779.373485508203	0
1	8032	12779.563523737658	0
1	8035	12780.740417252045	0
1	8037	12785.354043102947	0
1	8039	12788.8487647838	0
1	8042	12794.849400593045	0
1	8044	12795.781198756284	0
1	8047	12795.798144990227	0
1	8049	12800.980275156747	0
1	8051	12802.388649777851	0
1	8054	12803.50160328112	0
1	8057	12806.320726447594	0
1	8060	12807.210917682963	0
1	8062	12807.725102087866	0
1	8065	12815.415494338125	0
1	8067	12817.014446869667	0
1	8070	12821.975096724684	0
1	8072	12824.874279897925	0
1	8074	12826.307150185469	0
1	8076	12826.402754626363	0
1	8078	12845.090004442314	0
1	8081	12849.472595623847	0
1	8083	12859.957879059244	0
1	8086	12864.326053143119	0
1	8089	12873.760016069635	0
1	8092	12880.114292050538	0
1	8095	12886.675759922879	0
1	8097	12887.236002278414	0
1	8099	12894.175777508351	0
1	8102	12894.639626413971	0
1	8105	12901.1363886897	0
1	8107	12901.653234288252	0
1	8110	12903.887820183499	0
1	8112	12911.404641286936	0
1	8114	12930.441448200775	0
1	8116	12932.325875523988	0
1	8118	12942.799919271656	0
1	8121	12946.538553777975	0
1	8124	12947.450944502397	0
1	8127	12952.479905575975	0
1	8130	12973.143431156136	0
1	8132	12980.007371287278	0
1	8134	12987.204906227449	0
1	8137	12988.206546606155	0
1	8139	12991.253024336334	0
1	8142	12994.971648271587	0
1	8145	13002.359703683641	0
1	8147	13003.780739514141	0
1	8150	13016.021073101221	0
1	8152	13036.439977754079	0
1	8154	13044.307789587571	0
1	8156	13045.999607248967	0
1	8158	13049.188687780419	0
1	8161	13078.040574901057	0
1	8164	13080.672863140147	0
1	8167	13081.599955521605	0
1	8169	13095.623846103044	0
1	8172	13095.999588394948	0
1	8175	13097.807390259328	0
1	8178	13120.930582262399	1
1	8180	13126.222592486468	0
1	8183	13126.461903437542	1
1	8185	13129.362894336573	0
1	8188	13131.968965811633	0
1	8190	13132.020799685822	0
1	8192	13132.847510132889	0
1	8195	13137.368700440863	0
1	8197	13141.833015730103	0
1	8199	13152.076118352303	0
1	8202	13153.038136751398	0
1	8204	13156.820847798472	0
1	8206	13162.630797402273	0
1	8209	13164.925421047568	0
1	8211	13180.390503952492	0
1	8213	13214.635787389504	0
1	8215	13220.884697053546	0
1	8218	13223.524330269535	0
1	8221	13227.689295486437	0
1	8223	13245.986952066188	0
1	8225	13248.248635184089	0
1	8228	13257.566200160855	0
1	8230	13266.748039402162	0
1	8232	13269.16718773279	0
1	8235	13269.874662868723	0
1	8238	13277.106128578709	0
1	8240	13278.194377134625	0
1	8242	13280.086177242804	0
1	8245	13282.648100820284	0
1	8248	13291.834557809354	0
1	8251	13293.467813306293	0
1	8253	13298.078724014885	0
1	8255	13302.17479955042	0
1	8258	13304.508872725762	0
1	8261	13304.56647016548	0
1	8264	13317.549605465844	0
1	8266	13318.817241203472	0
1	8269	13319.472343810486	0
1	8271	13326.805446675107	0
1	8273	13328.859655004924	0
1	8276	13341.412384561706	0
1	8279	13341.665971034862	0
1	8282	13346.439946322853	0
1	8284	13346.696758597424	0
1	8287	13348.16104589894	0
1	8290	13349.718644145653	0
1	8292	13350.753421057982	0
1	8295	13357.524412268923	0
1	8297	13360.712768938301	0
1	8300	13365.664216107408	0
1	8302	13378.635105303145	0
1	8304	13379.870274131621	0
1	8307	13388.093827898884	0
1	8309	13388.120824611521	0
1	8311	13402.727716517858	0
1	8314	13426.074973523034	0
1	8317	13426.346999148524	0
1	8320	13427.262799835514	0
1	8322	13429.359376033906	0
1	8324	13432.548480751779	0
1	8327	13433.007512012081	0
1	8330	13435.375804548698	0
1	8332	13436.031615988368	0
1	8335	13442.853531432253	0
1	8338	13446.831690244266	0
1	8340	13457.144556893368	0
1	8342	13461.271816309073	0
1	8345	13465.973793306184	0
1	8347	13467.796800448657	0
1	8350	13469.759450731107	0
1	8353	13470.064429584607	0
1	8355	13486.997539041344	0
1	8357	13487.323637158264	0
1	8360	13494.637770021282	0
1	8362	13494.638149370204	0
1	8365	13498.165503657584	0
1	8367	13504.328953364217	0
1	8369	13511.164614950472	0
1	8372	13514.385106724722	0
1	8374	13518.008195957755	0
1	8376	13519.499260348191	0
1	8379	13520.296289352497	0
1	8381	13529.996609010877	0
1	8384	13538.623084060387	0
1	8387	13543.407970662255	0
1	8389	13547.712177465211	0
1	8392	13552.688823711461	0
1	8395	13553.466182955403	0
1	8397	13564.6651499735	0
1	8399	13566.173303769641	0
1	8402	13569.125258624748	0
1	8404	13583.649386689485	0
1	8406	13590.676334801988	0
1	8408	13592.759651852592	0
1	8410	13607.366542809307	0
1	8413	13608.515799613103	0
1	8415	13622.412849706597	0
1	8418	13628.938828550084	0
1	8420	13632.284666886645	0
1	8423	13636.242782033268	0
1	8425	13643.527645241677	0
1	8428	13645.140042994589	0
1	8431	13646.973570187543	0
1	8434	13650.206435072259	0
1	8436	13661.160568906146	0
1	8438	13673.411264882273	0
1	8441	13677.820083545784	0
1	8443	13680.138959014519	0
1	8446	13688.428264026077	0
1	8449	13692.000615208104	0
1	8452	13703.663874482958	0
1	8455	13705.031174729381	0
1	8457	13711.452487760316	0
1	8460	13719.252538659683	0
1	8462	13720.210545134097	0
1	8465	13721.440684323282	0
1	8467	13724.041565464727	0
1	8469	13727.639494429717	0
1	8471	13733.08453384787	0
1	8473	13751.578286506948	0
1	8476	13753.980767623398	0
1	8478	13755.714673320072	0
1	8481	13767.270883754434	0
1	8483	13768.557682334258	0
1	8486	13770.605654501828	0
1	8489	13779.459040376864	0
1	8491	13791.608182655799	0
1	8494	13793.128803587223	0
1	8497	13795.858994908496	0
1	8499	13796.878363201427	0
1	8502	13801.079115239378	0
1	8504	13801.732359586935	0
1	8506	13802.347003178409	0
1	8508	13802.811981523913	0
1	8511	13809.848896245344	0
1	8514	13812.199659908938	0
1	8517	13813.33033162192	0
1	8520	13813.678427921201	0
1	8522	13814.578971016548	0
1	8524	13816.432355061525	0
1	8527	13816.435912765251	0
1	8530	13818.248823427815	0
1	8532	13822.902104890431	0
1	8534	13825.197662310899	0
1	8537	13831.575447454	0
1	8539	13832.624497891232	0
1	8541	13835.031784174593	0
1	8544	13835.316724483836	0
1	8547	13837.031927859463	0
1	8550	13841.946682882093	0
1	8553	13850.403338665742	0
1	8555	13857.080388084401	0
1	8557	13860.664263604267	0
1	8560	13863.965209603739	0
1	8563	13867.045766604125	1
1	8565	13872.083731699243	2
1	8567	13872.092719770556	1
1	8570	13873.357573768153	2
1	8572	13874.993078206229	1
1	8575	13877.275752251733	2
1	8577	13883.533011119328	1
1	8580	13900.154442638415	2
1	8582	13901.990182737438	3
1	8584	13903.685069879932	4
1	8586	13904.037817135386	3
1	8589	13905.755296204039	2
1	8592	13909.592139613153	1
1	8595	13911.560104714849	2
1	8597	13912.696400439642	1
1	8600	13916.595003694834	0
1	8603	13917.113906070762	0
1	8605	13921.610828329735	0
1	8607	13929.695803702641	0
1	8610	13930.337939505554	0
1	8612	13937.274411293005	0
1	8614	13943.401876669728	0
1	8617	13944.650639139101	0
1	8620	13945.336919949239	0
1	8623	13949.95225727924	1
1	8625	13950.699771271837	2
1	8627	13952.842586560254	1
1	8630	13953.356989126546	0
1	8633	13966.536736123132	1
1	8635	13966.712924206286	0
1	8638	13968.282781742988	1
1	8640	13969.716069513858	0
1	8643	13973.177773243136	0
1	8645	13977.932532146976	0
1	8647	13979.981366381174	0
1	8649	13981.050967942266	0
1	8651	13983.674817050915	0
1	8654	13985.289816156733	0
1	8656	14003.066515585472	0
1	8659	14012.982259685075	0
1	8662	14014.997375136286	0
1	8665	14016.997814587791	0
1	8667	14017.295772526626	0
1	8669	14017.842080964417	0
1	8671	14031.65631199381	0
1	8673	14034.771257471393	0
1	8676	14035.529998214511	0
1	8679	14038.735836442547	0
1	8681	14044.632700525167	0
1	8683	14048.213572101903	0
1	8686	14050.790094531267	0
1	8688	14054.800058370664	0
1	8691	14055.545472695648	0
1	8693	14064.19959396755	0
1	8695	14067.91173995232	0
1	8698	14072.687466067519	0
1	8701	14077.374681820426	0
1	8704	14083.344539841022	0
1	8707	14091.210403865023	0
1	8710	14101.463896107339	0
1	8713	14107.693371690521	0
1	8715	14110.471869872707	0
1	8717	14111.500085546185	0
1	8719	14118.770203871831	0
1	8721	14122.999681114447	0
1	8724	14127.312761470946	0
1	8727	14128.740370324265	0
1	8730	14132.241358543317	0
1	8732	14145.718597805674	0
1	8735	14147.541811133636	0
1	8737	14156.779381827131	0
1	8740	14159.808185105221	0
1	8742	14164.042165830857	0
1	8745	14168.201105506268	0
1	8748	14168.869050813397	1
1	8750	14175.654882410972	2
1	8752	14178.904124693006	1
1	8755	14179.010135263634	2
1	8757	14179.727424664025	3
1	8759	14182.377566611175	4
1	8761	14183.112878031224	3
1	8764	14190.117523447917	4
1	8766	14191.199533031788	3
1	8769	14196.541295435091	4
1	8771	14199.82933346578	3
1	8774	14210.281618329026	4
1	8776	14211.100709937638	3
1	8779	14222.563256615704	2
1	8782	14224.245809767779	1
1	8785	14226.738748628719	2
1	8787	14230.081186790142	1
1	8790	14230.086217762556	0
1	8793	14231.894618281817	1
1	8795	14231.908806431083	2
1	8797	14232.246979456425	1
1	8800	14234.309891533374	0
1	8803	14254.600611078585	0
1	8805	14258.064612291586	0
1	8807	14259.000456864453	0
1	8810	14261.816993591617	0
1	8812	14268.833607988297	0
1	8815	14274.232625484678	0
1	8817	14275.709616612856	0
1	8820	14276.366544866224	0
1	8822	14281.334701718905	0
1	8824	14296.386786031741	0
1	8826	14303.612519597806	0
1	8829	14306.705531501669	0
1	8832	14314.51849622932	0
1	8835	14322.470859308264	0
1	8837	14323.619289576086	0
1	8840	14324.653246052043	0
1	8842	14333.228376680068	0
1	8844	14336.433740839235	0
1	8846	14342.991239252567	0
1	8849	14357.834804044905	0
1	8852	14368.284262138661	0
1	8855	14375.003461965721	0
1	8857	14379.547030970743	0
1	8860	14382.520892744415	0
1	8862	14384.196783826991	0
1	8865	14385.050205507542	0
1	8868	14385.069272717338	1
1	8870	14388.258051825672	2
1	8872	14392.832548922822	3

