version 2
run General-5-20191211-23:49:40-6374
attr configname General
attr datetime 20191211-23:49:40
attr experiment General
attr inifile omnetpp.ini
attr iterationvars ""
attr iterationvarsf ""
attr measurement ""
attr network Carrefour
attr processid 6374
attr repetition 5
attr replication #5
attr resultdir results
attr runnumber 5
attr seedset 5
param **.tillsNumber 7
param **.delta 0s
param **.policy 1
param **.capacity 0.3
param **.meanInterArrivalTime 8s
param **.meanItemsInACart 12
param **.interArrivalDistribution 0
param **.itemsInCartDistribution 0

vector 0 Carrefour.decider stats_numCustomers:vector ETV
attr "" ""
attr source numCustomers
vector 1 Carrefour.decider stats_numCustomersQueue:vector ETV
attr "" ""
attr source numCustomersQueue
0	902	1216.387917712528	13
0	905	1225.231118081265	12
0	908	1225.882418696305	13
0	910	1230.821630190446	12
0	913	1235.552494147182	11
0	916	1237.154290092953	10
0	919	1241.991148327911	11
0	921	1245.311731369363	12
0	923	1245.732450827004	11
0	926	1254.473837240584	10
0	929	1258.159296322333	9
0	932	1259.714882169383	8
0	935	1264.52715639592	7
0	938	1266.032078801932	6
0	940	1270.4569308709	7
0	943	1271.743565784328	6
0	945	1275.923276079011	7
0	948	1275.978485451152	6
0	950	1278.459441800616	5
0	952	1278.812906124817	4
0	954	1281.256154193354	5
0	957	1286.948484668774	4
0	959	1293.504164391248	3
0	961	1296.616252449065	2
0	963	1311.462371939239	3
0	966	1312.021740769305	2
0	968	1312.358168980087	3
0	971	1312.851196151475	2
0	973	1315.99858202396	1
0	975	1317.007779208822	2
0	978	1320.332354759256	3
0	981	1323.397360417153	4
0	984	1326.400733410182	3
0	986	1337.83956150828	4
0	989	1343.707932117982	5
0	992	1345.958187068211	4
0	994	1348.718446831112	5
0	997	1355.623033410176	6
0	1000	1356.402666917456	7
0	1003	1363.331195028048	6
0	1005	1364.038452601218	5
0	1007	1366.238861053336	4
0	1009	1367.43208148883	3
0	1011	1371.79222660443	4
0	1014	1372.118809102995	3
0	1016	1387.223541912481	4
0	1019	1387.787756630839	5
0	1022	1391.078714885871	6
0	1025	1393.42040132479	5
0	1027	1396.075610229594	6
0	1030	1402.135323384434	5
0	1032	1403.529825395805	6
0	1035	1405.46960051618	5
0	1037	1415.714040327884	6
0	1040	1416.670298216696	7
0	1043	1420.50495345834	6
0	1045	1423.452046370316	5
0	1047	1426.595671708704	4
0	1049	1426.814203126402	5
0	1052	1433.09490734337	6
0	1055	1433.941931917609	5
0	1057	1440.150446463441	6
0	1060	1447.417896856801	5
0	1062	1450.357021280096	6
0	1065	1450.659420588325	7
0	1068	1453.940655468456	6
0	1070	1457.466546632375	5
0	1072	1457.849256691979	4
0	1074	1461.780886783497	3
0	1076	1466.727729133034	4
0	1079	1470.182075278106	5
0	1082	1471.451238583479	6
0	1085	1476.381786710092	5
0	1087	1478.077306900522	6
0	1090	1478.950301605398	7
0	1093	1479.795316735073	6
0	1095	1481.125332842454	5
0	1097	1481.681304458713	4
0	1099	1481.800614575613	5
0	1102	1483.574031616809	4
0	1104	1485.609636956652	3
0	1106	1487.196076590325	4
0	1109	1492.941075450851	5
0	1112	1493.177985436244	6
0	1115	1502.131777678485	7
0	1118	1504.491938582337	6
0	1120	1505.728271460352	5
0	1122	1509.359977192398	6
0	1125	1510.747129230271	7
0	1128	1512.590947008045	8
0	1130	1513.005316892654	9
0	1132	1514.818544302357	10
0	1134	1516.692476710739	9
0	1137	1518.116237469102	10
0	1139	1520.8699179861	9
0	1142	1522.595597876106	8
0	1145	1526.453236676561	7
0	1148	1532.985889426664	8
0	1150	1533.900774623777	9
0	1152	1534.409119839479	10
0	1154	1535.986030181827	11
0	1156	1540.961703376702	10
0	1159	1541.518908037821	11
0	1161	1552.127026448289	10
0	1164	1556.139316916205	9
0	1167	1558.879238501681	10
0	1169	1561.164359514685	11
0	1171	1564.802001117913	12
0	1173	1567.971792977287	13
0	1175	1569.946871786254	14
0	1177	1569.970234551014	15
0	1179	1571.478229917649	14
0	1182	1576.774248044386	13
0	1185	1581.140868295799	14
0	1187	1583.942346883363	15
0	1189	1584.84661773635	16
0	1191	1592.463729583098	15
0	1194	1598.254439106588	14
0	1197	1599.940989544485	13
0	1200	1611.731834386649	12
0	1203	1613.951665056042	11
0	1206	1617.038765885509	10
0	1209	1619.521120441975	11
0	1211	1624.887848452053	10
0	1214	1630.440616757257	11
0	1216	1632.249532753569	10
0	1219	1632.523365017679	9
0	1222	1632.618580385885	10
0	1224	1637.694366320597	11
0	1226	1641.007998528474	10
0	1229	1641.496873428851	9
0	1232	1648.27030759072	10
0	1234	1652.958790666612	9
0	1237	1655.565822616912	10
0	1239	1668.249866183027	9
0	1242	1674.946790418038	8
0	1245	1680.4848859765	7
0	1248	1681.768733219997	8
0	1250	1683.046517707417	9
0	1252	1683.73085085591	8
0	1255	1696.565447623633	9
0	1257	1698.192516404227	10
0	1259	1702.354344802597	9
0	1262	1707.482560835045	8
0	1265	1707.671813987156	9
0	1267	1713.046708827951	8
0	1270	1715.252833684222	7
0	1273	1715.958539517877	8
0	1275	1716.793906849779	7
0	1278	1717.851370367551	8
0	1280	1718.25017141907	9
0	1282	1719.312186333548	8
0	1285	1724.086073083786	9
0	1287	1726.37274339386	10
0	1289	1732.29632944294	9
0	1292	1739.47975100041	8
0	1295	1746.703738699059	7
0	1298	1750.285973172254	8
0	1300	1756.540200797467	9
0	1302	1766.065333794477	10
0	1304	1766.676450572003	9
0	1307	1768.122798224028	10
0	1309	1768.408396184527	9
0	1312	1769.151044168464	8
0	1315	1772.111450563497	7
0	1318	1786.925642286558	8
0	1320	1790.768162840028	9
0	1322	1793.499312446451	8
0	1325	1799.118711161123	9
0	1327	1801.675246619296	8
0	1330	1811.754527718125	7
0	1333	1812.954736016953	6
0	1335	1819.550993841313	7
0	1338	1822.939645348696	8
0	1340	1827.086195444454	7
0	1343	1829.501480138211	6
0	1345	1833.82833407827	5
0	1347	1842.142597811378	4
0	1349	1843.699940262731	5
0	1352	1844.24187109838	6
0	1355	1850.933392577272	7
0	1358	1852.927525698408	8
0	1360	1855.233705439993	7
0	1363	1856.07919257404	6
0	1365	1857.113610175622	5
0	1367	1859.027004561038	6
0	1370	1860.209190057241	7
0	1373	1860.328962349142	8
0	1375	1866.124226470315	7
0	1378	1867.263074247831	6
0	1380	1871.23883796914	7
0	1383	1872.195437070725	6
0	1385	1882.025235817686	5
0	1387	1890.477462217916	4
0	1389	1901.735992856072	5
0	1392	1905.141629167879	6
0	1395	1908.878413664998	5
0	1397	1910.706931499718	4
0	1399	1911.949940837673	5
0	1402	1918.845578203914	6
0	1405	1928.740796305917	5
0	1407	1931.397975015586	6
0	1410	1932.872752017491	7
0	1413	1938.313796385487	6
0	1415	1939.468962431504	7
0	1418	1939.77865372103	8
0	1420	1941.34445458661	7
0	1423	1951.052355650916	6
0	1425	1951.697194262616	5
0	1427	1953.736549504617	4
0	1429	1956.56505500806	5
0	1432	1959.936562956522	4
0	1434	1963.834053625003	3
0	1436	1970.158936506647	4
0	1439	1977.17926348085	5
0	1442	1990.5695754669	6
0	1445	1991.556307559007	5
0	1447	1999.956535801467	4
0	1449	2000.440904135002	5
0	1452	2000.447794829847	4
0	1454	2002.111237018532	5
0	1457	2003.397597563808	6
0	1460	2007.132863633844	7
0	1463	2011.608100432561	8
0	1465	2013.002601579214	7
0	1468	2015.284259520496	6
0	1470	2020.059682163015	5
0	1472	2020.084691857923	4
0	1474	2022.51472961974	5
0	1477	2025.940221491821	4
0	1479	2026.463000922096	3
0	1481	2028.777114014305	2
0	1483	2030.27739184292	1
0	1485	2031.985217469819	2
0	1488	2033.634012291895	3
0	1491	2034.518066558932	4
0	1494	2035.323574520431	3
0	1496	2038.79079064193	4
0	1499	2043.423701105806	5
0	1502	2044.897945116408	4
0	1504	2045.525070939488	5
0	1507	2046.979185216433	6
0	1510	2053.980953623288	5
0	1512	2055.461003579819	6
0	1515	2061.118625596764	7
0	1518	2064.002894437382	6
0	1520	2064.82973108969	5
0	1522	2072.682727221677	6
0	1525	2073.174553606262	5
0	1527	2074.560949673478	4
0	1529	2086.35837828185	5
0	1532	2100.766998578051	6
0	1535	2101.522422402671	7
0	1538	2102.96199561243	6
0	1540	2103.430641098711	7
0	1543	2116.308894723734	8
0	1545	2132.917456548006	7
0	1548	2133.057929547768	6
0	1550	2137.795316534203	5
0	1552	2139.779400322817	4
0	1554	2142.463219243816	5
0	1557	2149.124817395319	6
0	1560	2151.545995646169	7
0	1563	2153.721406876594	6
0	1565	2153.851588926078	5
0	1567	2156.749805157944	4
0	1569	2158.666063129759	5
0	1572	2161.584081490479	4
0	1574	2163.786423702568	3
0	1576	2174.613359786587	4
0	1579	2176.379537317559	5
0	1582	2177.464944387406	6
0	1585	2180.699645476595	5
0	1587	2182.048230151066	6
0	1590	2184.233464702307	5
0	1592	2185.217989007885	4
0	1594	2185.755978727406	5
0	1597	2188.022384026685	4
0	1599	2188.562700545832	5
0	1602	2189.065854312603	4
0	1604	2197.479000765181	5
0	1607	2197.785249859041	6
0	1610	2199.069090749238	5
0	1612	2204.090090502952	4
0	1614	2213.286043633594	3
0	1616	2219.512164402773	4
0	1619	2219.76148820456	5
0	1622	2222.676771425874	4
0	1624	2226.309349114087	5
0	1627	2226.416220903533	4
0	1629	2231.137336758207	5
0	1632	2231.673217968365	4
0	1634	2234.882220617678	3
0	1636	2237.699451464386	2
0	1638	2240.066231402592	3
0	1641	2242.291615669251	2
0	1643	2250.993902219027	3
0	1646	2251.635389582039	4
0	1649	2258.154210091279	5
0	1652	2260.454453249608	6
0	1655	2260.763045667435	5
0	1657	2264.344995222579	6
0	1660	2267.860249198829	7
0	1663	2269.332331945161	8
0	1665	2269.522019839069	9
0	1667	2272.440401657779	8
0	1670	2284.096206489437	9
0	1672	2292.080194814761	8
0	1675	2301.552044194705	7
0	1678	2305.979045685946	8
0	1680	2313.290429937918	9
0	1682	2315.17213579483	10
0	1684	2318.10337303628	9
0	1687	2318.760274341168	8
0	1690	2327.055848156405	7
0	1693	2327.384492595257	8
0	1695	2334.263264943407	9
0	1697	2335.958786925201	8
0	1700	2343.885202795098	7
0	1703	2344.647557257201	6
0	1705	2346.071046688395	5
0	1707	2349.361107097068	6
0	1710	2356.321085701441	7
0	1713	2363.714922611424	8
0	1715	2365.846684096897	9
0	1717	2377.99836714862	10
0	1719	2383.275744383973	11
0	1721	2390.927166335161	12
0	1723	2394.394727394336	11
0	1726	2397.262836715523	12
0	1728	2397.433975788504	13
0	1730	2400.202795194653	12
0	1733	2407.507572565286	11
0	1736	2412.584596403716	10
0	1739	2413.414790298711	9
0	1742	2413.868053822312	10
0	1744	2415.19313734337	9
0	1747	2416.944946779306	8
0	1750	2418.56991870901	7
0	1753	2424.872855337695	6
0	1755	2424.973289893752	7
0	1758	2426.64492744018	6
0	1760	2428.498469103579	5
0	1762	2434.365353483901	4
0	1764	2436.133778127555	3
0	1766	2436.457662002379	2
0	1768	2451.575191707496	3
0	1771	2453.124278777937	4
0	1774	2454.534459429907	5
0	1777	2456.710673889456	4
0	1779	2458.357324793428	3
0	1781	2459.441967114101	4
0	1784	2459.578242967502	5
0	1787	2462.92269546374	4
0	1789	2465.336188214676	5
0	1792	2465.473601444368	6
0	1795	2468.738484404114	5
0	1797	2470.767113484964	6
0	1800	2472.540620720273	7
0	1803	2481.987926224409	6
0	1805	2487.423623497197	7
0	1808	2497.490240491529	6
0	1810	2505.728825580086	7
0	1813	2507.265996265924	8
0	1815	2519.594842953336	9
0	1817	2519.712787112669	10
0	1819	2520.652451009422	9
0	1822	2526.380627868912	8
0	1825	2528.977697668332	9
0	1827	2530.849010744121	8
0	1830	2531.61035094719	7
0	1833	2533.415181706692	6
0	1835	2537.380629593112	5
0	1837	2544.089011435828	6
0	1840	2547.251534993831	7
0	1843	2554.715937248524	6
0	1845	2555.716027379681	5
0	1847	2557.483277994761	4
0	1849	2558.110845100696	5
0	1852	2562.311464348913	6
0	1855	2567.192177028299	7
0	1858	2570.050169286601	6
0	1860	2574.016324947884	7
0	1863	2577.789147038319	6
0	1865	2578.33147583156	7
0	1868	2578.339373070702	8
0	1870	2579.332363393889	9
0	1872	2590.418000893464	10
0	1874	2590.733379538504	9
0	1877	2593.726129943993	10
0	1879	2594.149293578694	9
0	1882	2598.98561919602	8
0	1885	2602.406522848551	7
0	1888	2604.491511970451	6
0	1890	2604.843379004915	7
0	1893	2605.638928286807	8
0	1895	2609.5055529615	9
0	1897	2610.450366260489	8
0	1900	2610.883177904054	7
0	1903	2612.334659802056	6
0	1905	2619.571038479999	7
0	1908	2623.304723846424	8
0	1910	2623.38558463712	7
0	1913	2623.946472431522	8
0	1915	2625.098222685651	7
0	1918	2627.352653349935	6
0	1920	2638.742354370627	7
0	1923	2640.587227761766	8
0	1925	2647.735023386486	7
0	1928	2650.165442526348	6
0	1930	2651.980742239665	7
0	1933	2658.803068568308	8
0	1935	2660.253157607768	9
0	1937	2661.528562400304	8
0	1940	2663.036369454641	9
0	1942	2664.42582214128	8
0	1945	2668.157390402516	7
0	1948	2670.59605441566	6
0	1950	2672.959111103172	5
0	1952	2674.26084486889	6
0	1955	2677.021473711954	5
0	1957	2682.791401440632	6
0	1960	2689.709258813454	5
0	1962	2690.042004424184	6
0	1965	2697.696389976224	5
0	1967	2703.061530070598	6
0	1970	2704.183773016373	5
0	1972	2704.235234780008	4
0	1974	2707.732384940842	3
0	1976	2723.978978664852	4
0	1979	2725.103957371198	3
0	1981	2726.387271025124	2
0	1983	2727.440191379067	3
0	1986	2730.910396951626	2
0	1988	2731.73069535862	3
0	1991	2732.515483191721	4
0	1994	2733.330469374324	5
0	1997	2736.03792897535	4
0	1999	2746.757176431775	5
0	2002	2748.989149835047	4
0	2004	2753.703650941836	3
0	2006	2761.342042175291	2
0	2008	2764.875887263721	3
0	2011	2777.167867532902	4
0	2014	2778.128224124024	3
0	2016	2784.076033470284	2
0	2018	2787.069424829608	3
0	2021	2787.261141546298	2
0	2023	2791.068762321663	3
0	2026	2793.711425112217	2
0	2028	2795.468144707142	3
0	2031	2799.070163179757	2
0	2033	2811.457185796692	3
0	2036	2814.25784370311	4
0	2039	2818.134309886962	5
0	2042	2819.708158020658	6
0	2045	2822.087893795452	7
0	2048	2829.069660324832	6
0	2050	2833.651335832084	5
0	2052	2834.386216006763	4
0	2054	2843.191896347809	5
0	2057	2847.856458002816	4
0	2059	2851.283874450868	3
0	2061	2856.324813066339	2
0	2063	2857.339455724428	3
0	2066	2857.449158836439	2
0	2068	2859.945848149603	3
0	2071	2861.909891177943	2
0	2073	2870.611903174023	3
0	2076	2875.361342802474	4
0	2079	2881.029068668865	5
0	2082	2888.559343724583	6
0	2085	2888.648735982329	5
0	2087	2890.234456564813	4
0	2089	2896.82928311865	5
0	2092	2900.409456264217	6
0	2095	2902.327569216256	7
0	2098	2902.848049377551	6
0	2100	2905.912173433915	5
0	2102	2906.471493316531	4
0	2104	2907.04140781852	5
0	2107	2917.076239345895	4
0	2109	2925.125965540339	5
0	2112	2925.488121467407	6
0	2115	2927.348265464417	5
0	2117	2936.368543157442	4
0	2119	2939.320425683586	3
0	2121	2952.526643827595	4
0	2124	2954.40575949736	3
0	2126	2954.801430500023	4
0	2129	2954.919149160377	3
0	2131	2957.85153214135	4
0	2134	2962.857434360464	5
0	2137	2965.239594468274	4
0	2139	2970.195189320754	3
0	2141	2978.910093275952	4
0	2144	2988.544124069506	3
0	2146	2990.563146198326	2
0	2148	2991.741023241983	1
0	2150	2996.069094276036	2
0	2153	2999.040893786991	3
0	2156	3000.637487818893	4
0	2159	3000.842196264112	5
0	2162	3004.364816465263	6
0	2165	3004.768388075391	7
0	2168	3007.679036511512	8
0	2170	3009.311911717207	9
0	2172	3010.547904776649	8
0	2175	3011.39496180874	7
0	2178	3019.671812931894	8
0	2180	3020.244067445047	9
0	2182	3020.715414336968	8
0	2185	3022.088274176916	7
0	2188	3022.741130117923	8
0	2190	3025.122724630433	9
0	2192	3028.51007683142	10
0	2194	3032.081964581751	9
0	2197	3039.804420137012	8
0	2200	3041.745400159746	7
0	2203	3043.033144095619	6
0	2205	3048.098526178165	7
0	2208	3049.621033267302	6
0	2210	3051.59072823752	7
0	2213	3051.870879562976	6
0	2215	3056.488421618276	7
0	2218	3058.931000142832	8
0	2220	3060.047044394413	9
0	2222	3062.268721298893	8
0	2225	3066.307516179501	9
0	2227	3079.588805841811	10
0	2229	3081.956113482269	11
0	2231	3086.089117353122	12
0	2233	3088.607816150997	11
0	2236	3089.009510048228	12
0	2238	3089.207398685163	13
0	2240	3089.323638961667	12
0	2243	3090.038477235814	13
0	2245	3101.921832091354	12
0	2248	3104.30915476331	11
0	2251	3105.588315619607	12
0	2253	3108.86018767619	11
0	2256	3112.627812673087	10
0	2259	3115.06887224962	9
0	2262	3116.537170854675	8
0	2265	3119.367740058406	9
0	2267	3121.932631528078	10
0	2269	3126.159359024971	11
0	2271	3127.715864300517	10
0	2274	3130.731455870746	9
0	2277	3131.385457016022	8
0	2280	3135.756180580006	7
0	2283	3136.037728776656	8
0	2285	3138.219271972076	7
0	2288	3140.245137386052	8
0	2290	3142.491169286185	7
0	2293	3142.820680152899	6
0	2295	3143.762762257077	7
0	2298	3145.79914947665	6
0	2300	3149.95812681445	7
0	2303	3151.065934618595	6
0	2305	3156.165854761724	5
0	2307	3157.426992194613	4
0	2309	3160.662594029928	3
0	2311	3162.609171087349	4
0	2314	3163.957938947101	3
0	2316	3170.104567319028	4
0	2319	3171.459256384331	3
0	2321	3184.999560968745	4
0	2324	3191.726710256707	5
0	2327	3192.691853197879	4
0	2329	3193.844227615706	3
0	2331	3195.356431881174	2
0	2333	3197.906788247577	3
0	2336	3198.568332474204	4
0	2339	3205.119585287194	5
0	2342	3211.376123779436	4
0	2344	3213.927941087443	3
0	2346	3220.412303265936	2
0	2348	3239.911464183778	3
0	2351	3240.956981783527	4
0	2354	3244.367355243782	3
0	2356	3244.600773651483	4
0	2359	3248.394690957008	5
0	2362	3251.346684789299	6
0	2365	3255.826074099726	7
0	2368	3259.828075031097	6
0	2370	3259.936291742064	7
0	2373	3265.662848248518	8
0	2375	3265.976025498282	9
0	2377	3283.763449982759	10
0	2379	3284.192428467111	11
0	2381	3287.048235429773	12
0	2383	3288.93035823051	13
0	2385	3292.969661790482	14
0	2387	3293.640710644533	13
0	2390	3295.455813503357	14
0	2392	3297.074776523127	13
0	2395	3299.585705170111	12
0	2398	3308.066672134242	13
0	2400	3308.229770902359	14
0	2402	3312.481754609255	15
0	2404	3316.718094781721	16
0	2406	3316.836389682946	15
0	2409	3318.35333209666	16
0	2411	3319.840663716684	15
0	2414	3322.168860523702	14
0	2417	3324.57786207812	15
0	2419	3330.426342071733	14
0	2422	3336.473651920171	13
0	2425	3337.301717959406	12
0	2428	3339.250889052754	13
0	2430	3344.147231969695	12
0	2433	3349.534713408081	13
0	2435	3356.272930021301	14
0	2437	3358.230061471613	13
0	2440	3360.071125839041	12
0	2443	3364.358589489495	11
0	2446	3372.452555775873	10
0	2449	3373.457216877322	11
0	2451	3373.952647429567	12
0	2453	3375.299655865382	13
0	2455	3377.939042226155	12
0	2458	3379.561617023137	11
0	2461	3383.317757823325	10
0	2464	3383.979481587531	9
0	2467	3395.609512492571	8
0	2470	3411.318380647034	9
0	2472	3416.207214058329	10
0	2474	3418.285491010322	11
0	2476	3424.736163897529	10
0	2479	3425.171216921367	9
0	2482	3427.742613718448	8
0	2485	3429.720875739119	7
0	2488	3437.195388481036	6
0	2490	3438.100374536519	5
0	2492	3439.078586273902	4
0	2494	3444.740503104848	3
0	2496	3446.051607982918	4
0	2499	3447.034652422334	3
0	2501	3453.68150772475	4
0	2504	3456.695438441405	5
0	2507	3460.36670320554	6
0	2510	3461.940591580068	5
0	2512	3463.536194131896	4
0	2514	3472.405639534244	3
0	2516	3483.587045608248	4
0	2519	3496.57436423774	5
0	2522	3499.08913849877	6
0	2525	3506.990612975699	7
0	2528	3507.397761375428	8
0	2530	3517.466351330951	7
0	2533	3518.198649440608	6
0	2535	3518.207980102498	5
0	2537	3519.186363976116	4
0	2539	3521.170397770974	5
0	2542	3529.156840186345	6
0	2545	3530.656552673484	5
0	2547	3531.87710391992	6
0	2550	3535.66996759038	7
0	2553	3538.240376326179	8
0	2555	3540.308909570017	9
0	2557	3547.660301062648	10
0	2559	3548.417352362024	9
0	2562	3548.793147427164	8
0	2565	3549.833813982198	9
0	2567	3554.120963788358	8
0	2570	3563.569815294413	7
0	2573	3565.605678530388	6
0	2575	3572.145405612826	7
0	2578	3574.395626294349	8
0	2580	3583.283392330846	7
0	2583	3584.224382122942	8
0	2585	3590.863140640595	7
0	2588	3592.9161024449	8
0	2590	3594.428229928867	7
0	2593	3595.361819028155	8
0	2595	3598.174534288223	7
0	2598	3598.789706156293	8
0	2600	3599.833636995989	9
0	2602	3600.394158999819	8
0	2605	3603.720661842895	9
0	2607	3608.008873843371	8
0	2610	3608.631272923161	9
0	2612	3609.157530266503	8
0	2615	3612.379183655211	7
0	2618	3622.202060941345	6
0	2620	3622.36811686524	7
0	2623	3635.60528724773	6
0	2625	3636.105175169877	5
0	2627	3646.280421403664	4
0	2629	3648.845522433094	3
0	2631	3651.819375992529	4
0	2634	3667.553984832292	3
0	2636	3669.851434905087	4
0	2639	3678.981281418154	5
0	2642	3681.531412649223	6
0	2645	3683.249381191193	7
0	2648	3686.427702075784	6
0	2650	3699.885492545105	7
0	2653	3700.268426779987	8
0	2655	3716.42670215442	7
0	2658	3717.103439206135	8
0	2660	3718.865343538257	7
0	2663	3732.270942787294	6
0	2665	3741.503922293675	7
0	2668	3748.459160377037	6
0	2670	3749.257356082156	5
0	2672	3750.000996298762	4
0	2674	3752.50966668639	3
0	2676	3753.850457386348	4
0	2679	3769.502531418948	5
0	2682	3769.547530361482	6
0	2685	3773.993466891974	5
0	2687	3777.169859984517	4
0	2689	3783.625114537229	5
0	2692	3785.958184780238	6
0	2695	3799.222053958236	5
0	2697	3801.46356128892	4
0	2699	3804.818615374111	3
0	2701	3812.530000564147	4
0	2704	3814.249087000428	5
0	2707	3820.458008160219	4
0	2709	3821.558170046091	5
0	2712	3825.791745235661	6
0	2715	3826.640332634849	5
0	2717	3842.264402078512	4
0	2719	3846.80938400791	3
0	2721	3847.171183530285	4
0	2724	3851.906112075732	5
0	2727	3853.175909970344	6
0	2730	3854.309883339997	5
0	2732	3854.913250622961	4
0	2734	3862.391695514056	3
0	2736	3865.805033453187	4
0	2739	3866.772981653616	5
0	2742	3871.083742843471	4
0	2744	3877.049624555067	5
0	2747	3880.77171371242	6
0	2750	3880.772564323371	7
0	2753	3880.91789036269	6
0	2755	3892.411210246225	7
0	2758	3899.047336902263	8
0	2760	3902.013720662358	7
0	2763	3902.146083643503	8
0	2765	3909.719015659779	7
0	2768	3912.162076920934	6
0	2770	3916.252923397028	7
0	2773	3918.891328532083	6
0	2775	3924.38258732698	7
0	2778	3924.401577784814	8
0	2780	3924.475688827629	9
0	2782	3925.757897922549	8
0	2785	3927.152357239956	7
0	2788	3927.511590491199	8
0	2790	3933.784310377297	9
0	2792	3943.729785111367	10
0	2794	3947.026738437405	11
0	2796	3950.187351959111	12
0	2798	3960.909791641246	11
0	2801	3965.524539763682	10
0	2804	3965.667822859754	9
0	2807	3968.451518497089	10
0	2809	3969.746505122284	9
0	2812	3971.409261154776	8
0	2815	3971.678994573072	7
0	2818	3972.844617075268	8
0	2820	3985.81624827848	7
0	2823	3995.199613084804	6
0	2825	3995.446734099677	7
0	2828	3999.788385785827	8
0	2830	4003.666034892867	9
0	2832	4017.041492480855	8
0	2835	4018.762251687808	7
0	2838	4019.899114552165	8
0	2840	4020.054978430562	7
0	2843	4021.844275071148	6
0	2845	4023.934123570228	7
0	2848	4024.851403478766	8
0	2850	4029.60408423725	7
0	2853	4034.924318452138	6
0	2855	4038.940479318202	5
0	2857	4043.05738679588	6
0	2860	4049.876748924944	7
0	2863	4050.361736049581	8
0	2865	4055.750032392784	7
0	2868	4057.736376150451	8
0	2870	4061.895028452067	9
0	2872	4062.486555896459	10
0	2874	4062.669831908091	9
0	2877	4063.60226680594	10
0	2879	4064.013940638058	9
0	2882	4066.509018216478	10
0	2884	4067.236905330481	11
0	2886	4072.336563385403	12
0	2888	4083.949263461036	11
0	2891	4084.595055865769	12
0	2893	4087.706542429144	11
0	2896	4089.07483789318	12
0	2898	4091.980675845815	13
0	2900	4095.546808791192	12
0	2903	4097.327829773086	11
0	2906	4098.663044758725	10
0	2909	4103.530708037547	11
0	2911	4110.548342701861	12
0	2913	4112.73779530442	13
0	2915	4112.808119915971	12
0	2918	4119.486706805521	11
0	2921	4124.788279015691	10
0	2924	4125.634490556659	9
0	2927	4129.598296793967	10
0	2929	4129.687712155402	9
0	2932	4132.278418451919	8
0	2935	4133.413422763004	7
0	2938	4136.795129575282	8
0	2940	4137.53624905014	7
0	2943	4137.900760944545	6
0	2945	4140.805556268175	5
0	2947	4143.169999460086	4
0	2949	4147.333783093313	3
0	2951	4153.81021686636	4
0	2954	4155.756861528737	5
0	2957	4163.106294329966	6
0	2960	4166.292889636249	7
0	2963	4168.889068633997	6
0	2965	4174.583123537424	7
0	2968	4175.148844779248	8
0	2970	4175.615203172987	9
0	2972	4177.322658248076	8
0	2975	4179.384717399699	7
0	2978	4182.065784008822	6
0	2980	4185.962118387459	7
0	2983	4186.064805932999	6
0	2985	4188.786816318686	7
0	2988	4191.120954768223	6
0	2990	4192.75430505874	5
0	2992	4194.614350573798	4
0	2994	4196.365763986618	5
0	2997	4199.551973755963	4
0	2999	4205.781155742569	5
0	3002	4206.77664114992	6
0	3005	4208.452829480967	7
0	3008	4210.589741285618	6
0	3010	4217.754619072129	7
0	3013	4220.475042229103	6
0	3015	4221.013832199844	5
0	3017	4227.116234334515	4
0	3019	4227.158972634019	3
0	3021	4230.751337732013	4
0	3024	4232.004742392464	5
0	3027	4237.78969749843	6
0	3030	4242.098013574194	5
0	3032	4242.968152679843	4
0	3034	4252.436699008849	3
0	3036	4264.06305655287	4
0	3039	4271.722284607648	3
0	3041	4275.39002961277	4
0	3044	4276.173844329784	3
0	3046	4287.404684850847	4
0	3049	4288.97074821208	5
0	3052	4303.909182855719	4
0	3054	4307.664023943102	5
0	3057	4308.353894467551	6
0	3060	4308.873156714167	5
0	3062	4312.232370803525	4
0	3064	4320.453745397519	3
0	3066	4320.627767264265	4
0	3069	4325.891119153761	5
0	3072	4326.797673761728	4
0	3074	4328.240376210034	3
0	3076	4331.576508072853	4
0	3079	4334.740027383259	3
0	3081	4337.597204132516	4
0	3084	4338.268133892063	3
0	3086	4338.729442267532	4
0	3089	4348.263379417983	5
0	3092	4350.352324091298	6
0	3095	4351.774322697919	5
0	3097	4352.185230873779	6
0	3100	4359.682772616596	5
0	3102	4359.857686717137	6
0	3105	4368.76032569929	7
0	3108	4368.993720523148	6
0	3110	4380.481075314702	7
0	3113	4382.047181346794	6
0	3115	4387.587466158127	5
0	3117	4393.091782738194	6
0	3120	4394.406768292826	5
0	3122	4399.2590100773	6
0	3125	4399.381763139367	5
0	3127	4399.600080953604	6
0	3130	4403.267420085868	7
0	3133	4405.44465907078	6
0	3135	4423.849989617749	5
0	3137	4429.719793190333	6
0	3140	4432.736184302004	5
0	3142	4438.581473974617	6
0	3145	4441.714790848817	5
0	3147	4444.620209077856	4
0	3149	4461.688163118708	3
0	3151	4462.63178942097	2
0	3153	4468.219176991824	3
0	3156	4472.396309716984	4
0	3159	4478.796127218258	5
0	3162	4478.860229243452	4
0	3164	4482.32839308301	5
0	3167	4482.865267238288	6
0	3170	4492.728746657607	5
0	3172	4492.766913926396	6
0	3175	4496.15476688645	7
0	3178	4501.114861787242	6
0	3180	4501.407311160446	5
0	3182	4502.673163492301	6
0	3185	4502.838295825079	7
0	3188	4503.36492316464	6
0	3190	4507.818777469924	5
0	3192	4513.941934996096	4
0	3194	4516.532767771849	3
0	3196	4523.527275379122	2
0	3198	4529.888104429488	1
0	3200	4549.284176084402	2
0	3203	4552.18551247927	1
0	3205	4562.193824633765	2
0	3208	4565.93908494217	3
0	3211	4566.572719345621	2
0	3213	4567.803899664019	3
0	3216	4577.460531412938	4
0	3219	4578.697427818985	5
0	3222	4584.979330361335	6
0	3225	4586.391110718155	5
0	3227	4594.608286289241	6
0	3230	4595.910212155428	5
0	3232	4599.30970149546	6
0	3235	4599.787275290612	7
0	3238	4600.502688988195	6
0	3240	4602.5639372353	5
0	3242	4602.648796645625	6
0	3245	4605.021046260858	7
0	3248	4605.246675529314	6
0	3250	4612.555564859815	7
0	3253	4613.700535030808	6
0	3255	4618.267782613061	7
0	3258	4619.508271475525	6
0	3260	4622.382191024633	5
0	3262	4626.628312728883	6
0	3265	4639.06245043845	5
0	3267	4645.208898601429	4
0	3269	4651.425453805757	3
0	3271	4659.926561245216	2
0	3273	4669.439997042361	3
0	3276	4670.463732475648	2
0	3278	4685.799739931916	3
0	3281	4687.067164811743	4
0	3284	4694.283855986038	5
0	3287	4694.474437093954	4
0	3289	4694.505820041851	3
0	3291	4699.059497350696	4
0	3294	4699.5750552912	3
0	3296	4700.375850100228	4
0	3299	4707.735035465213	5
0	3302	4713.716395104761	4
0	3304	4714.325808200443	3
0	3306	4721.396804905483	4
0	3309	4722.215481203302	5
0	3312	4723.613623552454	6
0	3315	4726.339303804871	7
0	3318	4728.804176731737	6
0	3320	4734.986158795824	7
0	3323	4739.121893437113	6
0	3325	4740.216951641093	5
0	3327	4742.366065249706	4
0	3329	4745.192771245548	5
0	3332	4746.747617108299	6
0	3335	4750.961254504551	5
0	3337	4753.150021515768	6
0	3340	4758.446290186249	7
0	3343	4759.459870256148	6
0	3345	4764.325767548278	5
0	3347	4773.036106979673	6
0	3350	4781.565979185008	5
0	3352	4783.037764570055	6
0	3355	4783.252198422256	5
0	3357	4787.183931338037	4
0	3359	4789.984083039669	5
0	3362	4790.201702885836	4
0	3364	4795.233997528478	5
0	3367	4796.86633219292	6
0	3370	4797.98763770519	5
0	3372	4798.079973758743	6
0	3375	4802.165771214953	5
0	3377	4805.726509657501	6
0	3380	4816.224540331863	7
0	3383	4831.784912430641	6
0	3385	4832.97858076169	5
0	3387	4833.044506348785	4
0	3389	4833.664300672926	5
0	3392	4834.824546779522	4
0	3394	4845.253953570175	3
0	3396	4847.047408281811	4
0	3399	4852.865827772407	5
0	3402	4863.159462466825	6
0	3405	4871.030532063632	7
0	3408	4872.274213608728	6
0	3410	4877.253913221906	5
0	3412	4879.941938720052	6
0	3415	4884.922909941825	5
0	3417	4885.568474311867	6
0	3420	4888.021905489401	7
0	3423	4888.799601447553	6
0	3425	4895.251232797027	5
0	3427	4907.255533398395	6
0	3430	4909.840054773331	7
0	3433	4910.634686995898	6
0	3435	4912.513666711362	5
0	3437	4914.106051569083	6
0	3440	4918.307916643379	5
0	3442	4927.217175871179	4
0	3444	4928.852117247272	5
0	3447	4934.985928295682	6
0	3450	4940.787187461759	7
0	3453	4944.143413164421	8
0	3455	4950.202288393327	7
0	3458	4956.523271425623	6
0	3460	4957.021192794317	5
0	3462	4958.229662365237	6
0	3465	4959.339868151849	7
0	3468	4959.359649630645	6
0	3470	4965.932435468276	5
0	3472	4967.288066076885	6
0	3475	4972.336015948223	5
0	3477	4975.985214506692	6
0	3480	4982.230335178091	7
0	3483	4983.875185331528	6
0	3485	4990.559096969829	5
0	3487	4992.289437100684	4
0	3489	4994.879932591537	3
0	3491	4996.974973963505	2
0	3493	5004.180168383502	3
0	3496	5005.847357694718	2
0	3498	5018.151928758692	3
0	3501	5018.432181942499	2
0	3503	5021.352444053774	1
0	3505	5025.740977060849	2
0	3508	5034.80204418406	3
0	3511	5038.447045233638	2
0	3513	5049.600806032486	3
0	3516	5059.081402777699	4
0	3519	5061.047670425959	5
0	3522	5063.026940132566	6
0	3525	5071.36948455928	5
0	3527	5081.705470964302	6
0	3530	5085.548207497596	5
0	3532	5087.72524310811	4
0	3534	5088.74835695886	3
0	3536	5100.154794649218	4
0	3539	5100.233338775161	5
0	3542	5101.362310815949	6
0	3545	5103.409842648996	7
0	3548	5104.241555972619	6
0	3550	5104.489541892491	7
0	3553	5105.153631225634	6
0	3555	5105.622558538911	7
0	3558	5106.952855428798	8
0	3560	5109.229103184498	7
0	3563	5126.000943438658	8
0	3565	5126.441063711412	7
0	3568	5129.371381272848	8
0	3570	5136.624613717143	7
0	3573	5137.116610810319	6
0	3575	5138.848468233363	5
0	3577	5148.655473486109	6
0	3580	5148.723497172724	7
0	3583	5151.940624663828	6
0	3585	5155.683677843905	7
0	3588	5156.816941512025	8
0	3590	5157.549418140431	9
0	3592	5161.96545343577	8
0	3595	5167.893110778976	9
0	3597	5168.887459154929	10
0	3599	5183.043796809233	11
0	3601	5185.905890897268	10
0	3604	5188.063710362817	9
0	3607	5194.838552673026	10
0	3609	5194.947516849031	11
0	3611	5205.505438076278	12
0	3613	5206.060397163854	13
0	3615	5206.78967717034	14
0	3617	5207.738637891422	15
0	3619	5210.417374374229	14
0	3622	5211.277287408005	15
0	3624	5214.07675262391	16
0	3626	5217.872367461896	15
0	3629	5225.946656342206	16
0	3631	5227.104864380413	17
0	3633	5228.232504308435	18
0	3635	5230.902755095158	17
0	3638	5236.977945847549	18
0	3640	5243.152567873827	19
0	3642	5246.197858399669	20
0	3644	5246.24660520718	19
0	3647	5257.440813752245	20
0	3649	5260.609352894374	21
0	3651	5263.154770992201	22
0	3653	5264.569225103849	23
0	3655	5266.119564229238	22
0	3658	5267.521301572134	21
0	3661	5271.256446656212	22
0	3663	5271.786136988563	23
0	3665	5274.494697094938	22
0	3668	5275.215114028838	21
0	3671	5275.610095522185	20
0	3674	5276.966710159599	21
0	3676	5280.681281402757	20
0	3679	5287.784540901092	21
0	3681	5288.039091269942	20
0	3684	5294.291178028568	21
0	3686	5296.088876925065	20
0	3689	5299.062077607895	19
0	3692	5304.214951399005	20
0	3694	5308.864035712217	21
0	3696	5310.102918745885	20
0	3699	5314.274135002577	21
0	3701	5317.416856279449	20
0	3704	5319.195484915898	19
0	3707	5323.74063294516	20
0	3709	5323.8250051927	19
0	3712	5326.814945170743	18
0	3715	5339.466233455038	19
0	3717	5346.399390150471	18
0	3720	5349.599750415746	19
0	3722	5352.911431100073	18
0	3725	5355.267938757408	19
0	3727	5358.302454098608	18
0	3730	5363.256236554899	17
0	3733	5366.565181325501	18
0	3735	5367.784810604799	17
0	3738	5370.499787539976	16
0	3741	5373.429923785452	17
0	3743	5373.734214251818	18
0	3745	5376.077352219731	19
0	3747	5380.420747212513	18
0	3750	5380.540750661905	17
0	3753	5385.163764259722	18
0	3755	5389.62167099051	17
0	3758	5389.974011707135	16
0	3761	5391.836799987615	15
0	3764	5393.722895214821	16
0	3766	5393.986618475418	15
0	3769	5394.338587390798	14
0	3772	5396.825709584925	13
0	3775	5398.911663874575	14
0	3777	5404.473749910924	13
0	3780	5407.360761101563	14
0	3782	5408.205168852967	15
0	3784	5408.732575723134	16
0	3786	5410.953505028743	15
0	3789	5415.650541648175	14
0	3792	5416.351987072087	15
0	3794	5416.639846417076	16
0	3796	5425.045157790561	15
0	3799	5425.743417041558	14
0	3802	5429.055417243528	13
0	3805	5431.196897061553	14
0	3807	5431.404313135207	13
0	3810	5432.355120932772	12
0	3813	5432.908258741136	11
0	3816	5437.834121738532	10
0	3819	5439.633931559817	11
0	3821	5443.025835530299	10
0	3824	5450.224817206346	11
0	3826	5453.396642976418	12
0	3828	5456.309957458634	11
0	3831	5456.500382664042	12
0	3833	5458.743409067506	11
0	3836	5460.686901996485	10
0	3839	5467.550920839489	9
0	3842	5468.17355783123	8
0	3845	5475.449332012979	7
0	3848	5476.182558601792	8
0	3850	5476.744696407719	9
0	3852	5485.041843084403	8
0	3855	5486.03243672959	9
0	3857	5486.336795508342	10
0	3859	5487.652618144631	9
0	3862	5489.935750929903	8
0	3865	5490.393777772304	7
0	3868	5491.627644410333	6
0	3870	5492.735314822886	5
0	3872	5493.756985229993	6
0	3875	5500.308941776563	7
0	3878	5501.77492613482	6
0	3880	5504.54430145609	5
0	3882	5506.912879044778	4
0	3884	5521.620751052138	3
0	3886	5527.10202906367	4
0	3889	5528.504981171336	5
0	3892	5533.097345707897	4
0	3894	5543.090574281546	5
0	3897	5545.585150502285	6
0	3900	5553.172970035353	5
0	3902	5553.824787829204	6
0	3905	5555.975272203957	7
0	3908	5557.023410931344	6
0	3910	5558.016198863947	5
0	3912	5558.333188780406	6
0	3915	5558.366829124991	5
0	3917	5558.489485350755	6
0	3920	5561.824670946201	7
0	3923	5562.379205610729	6
0	3925	5563.140710415395	7
0	3928	5565.450041645328	8
0	3930	5565.725965895404	9
0	3932	5568.422542462049	10
0	3934	5578.916980939855	9
0	3937	5588.658822810841	8
0	3940	5589.963379987799	7
0	3943	5591.091175665702	6
0	3945	5600.488546863922	7
0	3948	5618.231656894453	6
0	3950	5621.079231005109	7
0	3953	5624.65559656603	8
0	3955	5625.681945454124	7
0	3958	5627.580781129114	8
0	3960	5627.790711490517	7
0	3963	5635.385995168508	6
0	3965	5641.545799244012	7
0	3968	5648.263863778672	8
0	3970	5651.339272265027	7
0	3973	5652.515321178881	8
0	3975	5656.183978946552	9
0	3977	5658.519418489624	10
0	3979	5660.263140788415	9
0	3982	5668.945178991335	8
0	3985	5669.866073036678	7
0	3988	5670.449127504359	6
0	3990	5671.185671041142	7
0	3993	5673.346618169648	8
0	3995	5673.623811630736	9
0	3997	5685.490328941429	10
0	3999	5687.439946199712	11
0	4001	5688.142717746017	10
0	4004	5696.339775687091	11
0	4006	5699.176220738337	10
0	4009	5700.456959572598	9
0	4012	5701.69418254789	8
0	4015	5704.116000752383	7
0	4018	5706.250328400853	8
0	4020	5709.891292789139	7
0	4023	5710.276706502221	6
0	4025	5712.158339204106	5
0	4027	5716.052741192052	6
0	4030	5723.96067296406	7
0	4033	5726.9988919924	6
0	4035	5732.655615248771	5
0	4037	5738.509815589525	4
0	4039	5739.307717089458	5
0	4042	5740.986742534226	6
0	4045	5746.8927284945	7
0	4048	5747.948331720445	6
0	4050	5758.23559052851	5
0	4052	5758.447952240932	6
0	4055	5763.126164831283	7
0	4058	5766.254964020344	6
0	4060	5777.510423774635	5
0	4062	5781.244845512068	6
0	4065	5785.975961150221	5
0	4067	5787.699825137835	6
0	4070	5788.883731636552	5
0	4072	5796.541420929175	6
0	4075	5801.368468269847	5
0	4077	5802.658116658284	4
0	4079	5804.562948728963	3
0	4081	5804.985724960149	4
0	4084	5806.981342937044	5
0	4087	5807.664205541449	4
0	4089	5808.74736747032	3
0	4091	5811.767455604785	2
0	4093	5819.411623316232	3
0	4096	5824.016868505981	4
0	4099	5824.060737146633	3
0	4101	5841.841845466163	4
0	4104	5848.59357507956	5
0	4107	5851.551716279055	6
0	4110	5852.470284022805	5
0	4112	5852.492819425065	6
0	4115	5853.658667070336	7
0	4118	5859.669683146218	8
0	4120	5870.789746028258	9
0	4122	5871.678752447863	10
0	4124	5877.665211323278	11
0	4126	5877.905809137863	12
0	4128	5879.294185026139	11
0	4131	5882.060147858185	10
0	4134	5890.193025771774	11
0	4136	5891.908515041345	10
0	4139	5894.064098479928	11
0	4141	5898.560012734702	12
0	4143	5903.795605918694	11
0	4146	5904.500070512817	10
0	4149	5906.986856065184	9
0	4152	5909.133163117974	10
0	4154	5919.098929663796	9
0	4157	5921.320478379954	8
0	4160	5921.87430262186	7
0	4163	5923.736351047246	8
0	4165	5924.850819255456	9
0	4167	5926.003401558527	8
0	4170	5927.78658563997	7
0	4173	5928.478172253478	6
0	4175	5928.487430836332	5
0	4177	5931.017164534611	6
0	4180	5935.430537207902	7
0	4183	5937.736516997201	8
0	4185	5938.433906391222	7
0	4188	5941.112203688056	8
0	4190	5941.597799784111	9
0	4192	5945.104074067828	8
0	4195	5945.797015852124	9
0	4197	5945.818383268979	8
0	4200	5946.568656264141	9
0	4202	5947.514683902194	10
0	4204	5949.045904678416	11
0	4206	5956.104384459871	12
0	4208	5956.682530749853	11
0	4211	5960.732287301808	12
0	4213	5966.092669833881	11
0	4216	5968.92892130965	10
0	4219	5981.408638421196	9
0	4222	5981.547003029364	8
0	4225	5984.796141501926	7
0	4228	5984.927970370037	8
0	4230	5989.491283564383	7
0	4233	5997.638379752304	6
0	4235	5998.253252813342	7
0	4238	6000.522999948981	8
0	4240	6006.906712374388	7
0	4243	6011.475482491878	6
0	4245	6017.723957859474	5
0	4247	6019.82238895865	6
0	4250	6021.17534567486	5
0	4252	6027.089314920589	6
0	4255	6027.183123775149	5
0	4257	6027.49380325787	4
0	4259	6033.955201185644	5
0	4262	6035.645118593497	4
0	4264	6039.313010807219	5
0	4267	6040.280927447779	4
0	4269	6042.065951535249	5
0	4272	6042.580160984216	6
0	4275	6043.783294636613	5
0	4277	6050.085423445538	4
0	4279	6051.019673854831	5
0	4282	6063.830885217287	4
0	4284	6071.619994578204	3
0	4286	6077.147008629254	4
0	4289	6085.274145011437	5
0	4292	6086.113298723535	6
0	4295	6091.715877495358	7
0	4298	6093.738341341983	6
0	4300	6096.398137331737	7
0	4303	6108.892366622132	6
0	4305	6117.023319963961	5
0	4307	6120.50328587565	4
0	4309	6123.344738547926	5
0	4312	6132.966802860842	4
0	4314	6134.596310375832	5
0	4317	6147.744039244532	6
0	4320	6150.579494232861	7
0	4323	6153.059142526944	6
0	4325	6155.011822862921	5
0	4327	6158.896181521504	4
0	4329	6163.148340470324	3
0	4331	6163.467587387459	2
0	4333	6171.686123186523	3
0	4336	6176.051057664585	4
0	4339	6178.774744257239	3
0	4341	6183.665056514665	4
0	4344	6189.174085028725	3
0	4346	6195.342448645514	2
0	4348	6198.340376062857	3
0	4351	6199.352043877958	2
0	4353	6203.203148154462	1
0	4355	6216.836402834366	0
0	4357	6230.481185614292	1
0	4360	6236.6703731212	2
0	4363	6243.497281282556	1
0	4365	6246.712163644446	2
0	4368	6254.780884116323	1
0	4370	6278.386761206214	2
0	4373	6278.456337019298	3
0	4376	6289.103642556471	4
0	4379	6291.822697448031	5
0	4382	6293.751419721488	6
0	4385	6295.572487273529	5
0	4387	6304.455793592966	4
0	4389	6308.482311717155	5
0	4392	6309.802673111787	6
0	4395	6314.4867372551	7
0	4398	6318.755951377543	6
0	4400	6324.741313797945	7
0	4403	6326.261399462726	8
0	4405	6334.138960205973	7
0	4408	6336.333282001426	8
0	4410	6337.306349484183	9
0	4412	6338.946919039411	8
0	4415	6345.220298271607	7
0	4418	6349.125108308513	6
0	4420	6350.078922983717	7
0	4423	6358.737966405839	6
0	4425	6362.870096162783	7
0	4428	6362.903010080302	6
0	4430	6376.29420448474	7
0	4433	6380.585332327597	6
0	4435	6381.809292812588	5
0	4437	6384.66779551715	6
0	4440	6385.640854869653	7
0	4443	6385.951835389433	6
0	4445	6391.214017178448	7
0	4448	6394.847854263377	6
0	4450	6398.928905970042	5
0	4452	6398.993603580884	4
0	4454	6409.088408310109	3
0	4456	6409.993173148717	4
0	4459	6410.983064683547	3
0	4461	6412.485142061703	2
0	4463	6412.684121414873	3
0	4466	6424.594924697829	4
0	4469	6424.785852935614	3
0	4471	6432.695043481999	4
0	4474	6438.673960698456	5
0	4477	6438.943778401945	4
0	4479	6440.776921348142	3
0	4481	6442.349216866348	4
0	4484	6450.994147189817	5
0	4487	6453.565626458	4
0	4489	6457.198356140354	5
0	4492	6462.08601057913	6
0	4495	6473.57213319817	7
0	4498	6478.211343023753	6
0	4500	6480.988237600456	5
0	4502	6482.36385195109	4
0	4504	6484.534394029318	5
0	4507	6490.33455131919	4
0	4509	6499.189421845519	5
0	4512	6504.673771426842	6
0	4515	6505.560843238346	7
0	4518	6509.363363910836	8
0	4520	6510.079188291159	7
0	4523	6515.080476834595	8
0	4525	6515.494506477232	7
0	4528	6515.506470148918	8
0	4530	6522.169803237353	7
0	4533	6523.802589719764	8
0	4535	6535.329659200352	9
0	4537	6536.658726968706	10
0	4539	6536.995225193263	11
0	4541	6537.009314822761	12
0	4543	6537.895555459051	13
0	4545	6541.740449853808	12
0	4548	6551.107194159987	11
0	4551	6551.761352290093	10
0	4554	6561.160150067954	9
0	4557	6564.436523334318	8
0	4560	6565.196636652032	9
0	4562	6571.301384115071	8
0	4565	6571.969732960718	7
0	4568	6573.494586124242	6
0	4570	6573.87908807823	5
0	4572	6581.554547271366	6
0	4575	6591.865584543695	5
0	4577	6594.751067161736	6
0	4580	6602.535588174377	7
0	4583	6605.097975105578	8
0	4585	6606.519533675073	9
0	4587	6609.137457053833	10
0	4589	6610.354644332596	9
0	4592	6619.954889789852	8
0	4595	6631.478710053307	7
0	4598	6637.092773327142	8
0	4600	6638.121621231609	9
0	4602	6640.833565800239	10
0	4604	6641.708615555098	9
0	4607	6646.075573232079	10
0	4609	6648.004651126842	9
0	4612	6657.000989325184	8
0	4615	6659.085592308336	9
0	4617	6662.828218202772	8
0	4620	6668.466105043359	7
0	4623	6668.517036534949	6
0	4625	6675.541983634892	5
0	4627	6680.627178909954	6
0	4630	6684.705992998731	7
0	4633	6687.193462312757	6
0	4635	6688.780001388915	5
0	4637	6704.419997404366	6
0	4640	6704.589658045715	5
0	4642	6708.135423560646	6
0	4645	6710.371813145389	7
0	4648	6711.015854404995	6
0	4650	6713.082471385331	5
0	4652	6713.198461018108	6
0	4655	6717.216802092092	7
0	4658	6721.670210913061	8
0	4660	6728.852230564459	7
0	4663	6737.847205174105	6
0	4665	6742.754545853202	5
0	4667	6749.786806146273	6
0	4670	6750.960879604181	5
0	4672	6753.392181233001	6
0	4675	6755.584730246493	5
0	4677	6755.971690492349	6
0	4680	6756.088452921191	7
0	4683	6756.574938690135	6
0	4685	6756.995804566939	5
0	4687	6766.496966355668	4
0	4689	6767.451306909692	3
0	4691	6769.035854757911	2
0	4693	6778.314017234182	3
0	4696	6779.70085231423	4
0	4699	6783.747142263216	3
0	4701	6791.42397376125	4
0	4704	6792.71981870095	3
0	4706	6797.296965428108	4
0	4709	6812.124819839682	3
0	4711	6814.58000499713	4
0	4714	6815.400912362383	3
0	4716	6816.741216354603	4
0	4719	6816.898798546377	3
0	4721	6828.11296671968	2
0	4723	6833.125067923948	3
0	4726	6833.214882417067	2
0	4728	6848.515297746812	3
0	4731	6849.782303455104	4
0	4734	6851.036198233296	3
0	4736	6851.493932631256	2
0	4738	6853.420434033196	3
0	4741	6865.874772356551	4
0	4744	6866.527846250766	5
0	4747	6872.963488258449	4
0	4749	6874.924794015865	3
0	4751	6885.722574512476	4
0	4754	6886.226841691258	5
0	4757	6900.796539799586	6
0	4760	6905.44514949573	5
0	4762	6909.558953206559	4
0	4764	6910.436458976205	5
0	4767	6915.742386723346	4
0	4769	6920.395683758914	5
0	4772	6921.256627911141	6
0	4775	6924.194811401044	7
0	4778	6925.881167983372	8
0	4780	6926.875991727416	7
0	4783	6929.374146642052	8
0	4785	6930.607320508897	9
0	4787	6932.764521701502	10
0	4789	6942.723479461209	11
0	4791	6943.476309140692	12
0	4793	6944.253901543739	11
0	4796	6944.711055151007	12
0	4798	6946.441174964828	13
0	4800	6948.74939286055	12
0	4803	6956.155836294321	13
0	4805	6963.808736401706	14
0	4807	6964.637334861028	13
0	4810	6980.769134238196	12
0	4813	6982.036907930557	11
0	4816	6983.651107189679	12
0	4818	6984.093826041277	11
0	4821	6988.092550050012	10
0	4824	6995.494649924694	9
0	4827	6997.271184463353	8
0	4830	7002.28231692539	7
0	4833	7005.16693800712	8
0	4835	7007.322150526901	7
0	4838	7007.364939339618	8
0	4840	7016.762425035747	9
0	4842	7020.585083980545	8
0	4845	7022.316349369613	7
0	4848	7024.03605409188	8
0	4850	7030.655831080719	9
0	4852	7033.068816341911	8
0	4855	7038.683952998255	7
0	4858	7039.445537188908	6
0	4860	7043.41180862785	5
0	4862	7044.381118671988	6
0	4865	7046.830665952501	7
0	4868	7051.30665003042	6
0	4870	7054.304353656116	7
0	4873	7055.034858947922	6
0	4875	7060.296117351662	7
0	4878	7060.910791640187	6
0	4880	7063.268239465099	5
0	4882	7065.763235285797	4
0	4884	7068.07586813474	3
0	4886	7069.27936149537	4
0	4889	7077.309500328704	3
0	4891	7082.332130882167	4
0	4894	7084.679276074839	5
0	4897	7087.476597182486	6
0	4900	7087.538440620529	5
0	4902	7087.581572153103	4
0	4904	7088.036820369861	5
0	4907	7089.65706559101	6
0	4910	7091.232595914754	5
0	4912	7097.847547640394	4
0	4914	7099.511614203993	3
0	4916	7099.585185158374	4
0	4919	7099.744623057269	5
0	4922	7116.897700873073	6
0	4925	7123.780099227679	5
0	4927	7124.037427645975	4
0	4929	7127.777140062914	5
0	4932	7128.01702260676	4
0	4934	7136.096992387476	3
0	4936	7148.996162356625	4
0	4939	7149.308529265072	5
0	4942	7157.845508801909	4
0	4944	7157.923163155696	3
0	4946	7159.134890745447	4
0	4949	7161.449721842729	3
0	4951	7163.683653912447	4
0	4954	7164.312091688732	3
0	4956	7178.831974326311	4
0	4959	7180.726555132408	3
0	4961	7186.244562332184	2
0	4963	7193.106342035101	3
0	4966	7194.275176616656	2
0	4968	7194.566381120171	3
0	4971	7194.674780687193	4
0	4974	7195.446615070986	3
0	4976	7195.918590551439	4
0	4979	7197.96057204061	3
0	4981	7198.055810238633	2
0	4983	7201.614546345861	3
0	4986	7201.932944595372	4
0	4989	7207.157416224694	5
0	4992	7221.288477434459	4
0	4994	7231.509766909209	3
0	4996	7241.650888936442	2
0	4998	7257.750349386609	1
0	5000	7258.232286061182	2
0	5003	7258.473114359041	3
0	5006	7264.350266260642	2
0	5008	7270.508175486317	3
0	5011	7270.600130115634	4
0	5014	7279.471797595405	3
0	5016	7289.407045004443	4
0	5019	7292.632913796033	5
0	5022	7294.178282132471	4
0	5024	7304.113608194549	5
0	5027	7304.620800100042	6
0	5030	7307.246215879471	5
0	5032	7309.766238355839	4
0	5034	7311.132560417745	3
0	5036	7317.456089069574	4
0	5039	7319.507653368838	3
0	5041	7324.749968218568	4
0	5044	7326.546421580917	5
0	5047	7331.294672497593	4
0	5049	7343.913281664667	5
0	5052	7347.205171646043	4
0	5054	7348.565123894672	3
0	5056	7351.590845642367	4
0	5059	7352.751746161935	3
0	5061	7355.840892479945	4
0	5064	7359.561794630103	3
0	5066	7364.245368490251	2
0	5068	7381.879092308757	3
0	5071	7382.191282880137	4
0	5074	7386.066871459016	3
0	5076	7389.173624014147	4
0	5079	7389.84800550512	5
0	5082	7398.197459435703	4
0	5084	7401.360859950016	5
0	5087	7402.044578312969	6
0	5090	7413.392276971875	7
0	5093	7414.098836294704	6
0	5095	7424.384782449395	5
0	5097	7426.651532213132	6
0	5100	7432.271891803368	5
0	5102	7435.351581265589	6
0	5105	7436.911392589082	5
0	5107	7444.041517602141	4
0	5109	7448.050959897626	3
0	5111	7448.254892932861	4
0	5114	7458.061623814305	3
0	5116	7465.945877068582	4
0	5119	7466.082312386464	5
0	5122	7468.790529605447	4
0	5124	7471.025702125875	5
0	5127	7486.828910607287	6
0	5130	7488.386303635977	5
0	5132	7491.934344219983	6
0	5135	7492.247258834145	5
0	5137	7493.989548922884	4
0	5139	7505.089394184267	3
0	5141	7511.314327353011	4
0	5144	7519.453740020068	5
0	5147	7523.552042648681	6
0	5150	7537.266163387214	7
0	5153	7539.971127922139	8
0	5155	7544.978909941475	7
0	5158	7548.768346653147	6
0	5160	7550.019448908615	7
0	5163	7554.404919297807	6
0	5165	7558.338623314741	5
0	5167	7563.037792476183	4
0	5169	7564.833812144972	5
0	5172	7565.695679736302	6
0	5175	7566.44904314527	5
0	5177	7573.374372635618	6
0	5180	7577.712288505746	5
0	5182	7581.311832095475	4
0	5184	7588.102942264775	3
0	5186	7589.308973147623	2
0	5188	7589.385695375717	1
0	5190	7603.015898703261	2
0	5193	7604.228053315736	3
0	5196	7604.667493508196	2
0	5198	7613.069001328768	3
0	5201	7615.147001153404	4
0	5204	7621.989546075233	3
0	5206	7625.92961964803	4
0	5209	7633.071064517043	3
0	5211	7640.665522429	4
0	5214	7642.212299405257	3
0	5216	7653.856954770538	4
0	5219	7654.008635424421	3
0	5221	7659.474626708946	2
0	5223	7660.554753612995	1
0	5225	7668.424731394793	0
0	5227	7668.738553273553	1
0	5230	7690.223214715077	2
0	5233	7692.212403109766	3
0	5236	7692.706149965601	4
0	5239	7706.040044188226	5
0	5242	7706.908013648449	6
0	5245	7708.996584057407	5
0	5247	7711.89147392784	4
0	5249	7713.050178349802	5
0	5252	7714.8386951259	4
0	5254	7721.051212390312	5
0	5257	7728.592874247277	6
0	5260	7734.615815801029	7
0	5263	7740.552328662057	8
0	5265	7743.745925575057	7
0	5268	7745.796598025507	8
0	5270	7748.822239607975	7
0	5273	7751.533831204781	6
0	5275	7752.050838662503	5
0	5277	7753.961571199447	6
0	5280	7754.573588080393	7
0	5283	7754.614945575563	8
0	5285	7757.675455826678	9
0	5287	7757.875855256868	10
0	5289	7760.769683035842	11
0	5291	7764.591341320093	10
0	5294	7768.47626186039	9
0	5297	7770.139827862421	10
0	5299	7772.247111703779	9
0	5302	7779.695374402303	10
0	5304	7781.20138023367	11
0	5306	7783.253947249517	12
0	5308	7792.725496338217	13
0	5310	7794.125425711599	12
0	5313	7796.973734663423	13
0	5315	7799.660489058195	14
0	5317	7809.164973781481	13
0	5320	7809.47115420706	12
0	5323	7813.027336105353	13
0	5325	7813.480795656166	14
0	5327	7813.83222839437	13
0	5330	7818.815427430076	14
0	5332	7825.797885477597	15
0	5334	7827.333559564302	16
0	5336	7830.139315312735	17
0	5338	7833.956991276319	18
0	5340	7837.075490956794	19
0	5342	7838.542091872248	18
0	5345	7839.688619185931	19
0	5347	7842.220688491023	18
0	5350	7846.682037015357	17
0	5353	7852.084406511038	16
0	5356	7852.349308176766	15
0	5359	7852.723314747298	14
0	5362	7853.674608974372	13
0	5365	7866.976028674922	14
0	5367	7867.223051215125	13
0	5370	7868.859711075659	12
0	5373	7868.934393461064	11
0	5376	7870.11175371802	10
0	5379	7875.105103484784	11
0	5381	7876.839758206191	12
0	5383	7881.459364345895	11
0	5386	7885.679791958955	10
0	5389	7887.998507819459	9
0	5392	7890.366136074356	10
0	5394	7892.791265705288	9
0	5397	7893.780420352741	10
0	5399	7901.704842181607	9
0	5402	7901.860499763769	10
0	5404	7902.739144282526	11
0	5406	7903.030647762862	10
0	5409	7908.271587087446	11
0	5411	7912.381985494119	12
0	5413	7916.346291247155	13
0	5415	7917.125850135544	14
0	5417	7917.324208644188	13
0	5420	7927.520978865266	12
0	5423	7936.083927845224	11
0	5426	7939.055253232587	10
0	5429	7941.442976903998	9
0	5432	7942.071762765388	8
0	5435	7946.251619924278	9
0	5437	7947.468252729978	8
0	5440	7951.874676119997	9
0	5442	7952.946966685535	8
0	5445	7953.977595370802	7
0	5448	7956.234622774648	6
0	5450	7961.457568143736	7
0	5453	7964.543996933839	6
0	5455	7972.31427235144	7
0	5458	7973.011291617248	8
0	5460	7973.053728054624	9
0	5462	7974.082558726917	10
0	5464	7974.838461198987	11
0	5466	7976.994087917171	12
0	5468	7977.456680138848	13
0	5470	7979.952434547209	14
0	5472	7996.355630640675	13
0	5475	7997.208246247205	14
0	5477	7998.888444443045	13
0	5480	8000.643877110685	14
0	5482	8003.844890704611	13
0	5485	8008.538954082204	12
0	5488	8024.053222093306	11
0	5491	8030.492682735568	10
0	5494	8032.830200218289	9
0	5497	8034.560239262048	10
0	5499	8037.301143675729	9
0	5502	8039.041476827814	10
0	5504	8039.685987984011	9
0	5507	8044.91614223992	10
0	5509	8045.442716691251	9
0	5512	8047.313541303531	8
0	5515	8048.404636009691	7
0	5518	8048.682508732344	6
0	5520	8049.862207229896	5
0	5522	8049.965594941079	6
0	5525	8051.734933247549	7
0	5528	8056.276840965117	6
0	5530	8058.664893703169	5
0	5532	8058.794756873363	4
0	5534	8058.818929781642	5
0	5537	8064.381713025159	4
0	5539	8065.081806515205	3
0	5541	8080.485129372885	4
0	5544	8081.071251078045	3
0	5546	8084.805636725961	4
0	5549	8085.318954032296	3
0	5551	8091.467163728233	2
0	5553	8093.310012011427	3
0	5556	8097.021377840163	2
0	5558	8100.750363666831	3
0	5561	8105.072738948761	2
0	5563	8113.304095487204	3
0	5566	8113.675333356403	2
0	5568	8116.468256476456	1
0	5570	8116.787087244299	2
0	5573	8122.513758747564	3
0	5576	8124.160961614379	2
0	5578	8141.030816965672	3
0	5581	8153.448168866472	4
0	5584	8157.243082980984	5
0	5587	8158.218267521705	4
0	5589	8160.504383927028	5
0	5592	8162.02430747073	4
0	5594	8163.032694874763	3
0	5596	8169.306725347758	4
0	5599	8170.268291084095	5
0	5602	8174.227655519889	6
0	5605	8176.234073488349	5
0	5607	8179.239720634946	4
0	5609	8193.043032798779	5
0	5612	8194.986722615096	6
0	5615	8195.020585489835	7
0	5618	8195.638804302673	8
0	5620	8196.24956762352	9
0	5622	8200.381178318294	8
0	5625	8210.494777442302	7
0	5628	8211.654966126566	8
0	5630	8212.790160515385	9
0	5632	8215.690668073687	10
0	5634	8221.481850849335	9
0	5637	8229.814261311456	8
0	5640	8238.48987140956	9
0	5642	8241.140487430044	8
0	5645	8244.270134738593	7
0	5648	8245.828875136299	8
0	5650	8248.715827122574	9
0	5652	8250.819614169861	10
0	5654	8252.739013273626	11
0	5656	8253.424940682915	12
0	5658	8255.729142295656	11
0	5661	8255.787026938929	12
0	5663	8261.539589292001	11
0	5666	8277.449176258152	12
0	5668	8278.255876242161	13
0	5670	8279.680661365447	12
0	5673	8281.488137209011	11
0	5676	8282.819772530482	12
0	5678	8285.50231593651	11
0	5681	8286.930385237358	12
0	5683	8305.241629219088	11
0	5686	8313.338752477742	10
0	5689	8314.864358298553	9
0	5692	8315.350806797163	10
0	5694	8316.659389415867	9
0	5697	8319.814236202341	8
0	5700	8321.116526577732	7
0	5703	8323.02663764996	6
0	5705	8325.85598002614	7
0	5708	8332.408935322474	6
0	5710	8344.027396174241	5
0	5712	8354.398825396839	4
0	5714	8355.374297423732	3
0	5716	8366.448546954617	4
0	5719	8369.265987635272	3
0	5721	8374.806312429815	4
0	5724	8377.488338297977	3
0	5726	8382.915511181328	2
0	5728	8386.435722110983	1
0	5730	8386.7450096108	2
0	5733	8389.055490780209	3
0	5736	8411.358667525514	4
0	5739	8413.423021158295	5
0	5742	8416.041558975884	4
0	5744	8416.156207026406	5
0	5747	8421.634721528259	6
0	5750	8422.110185875677	5
0	5752	8422.243203930915	4
0	5754	8423.494089143842	3
0	5756	8423.506009977466	2
0	5758	8424.242180168196	3
0	5761	8439.575898863436	2
0	5763	8440.248108387472	3
0	5766	8440.783078862738	2
0	5768	8441.052037517548	3
0	5771	8449.094406692867	4
0	5774	8452.55670280282	5
0	5777	8457.363387605593	4
0	5779	8463.792124245168	5
0	5782	8470.5897025762	4
0	5784	8475.735478513251	5
0	5787	8480.333034446124	6
0	5790	8487.428140679146	7
0	5793	8488.777201111866	6
0	5795	8490.472125172665	5
0	5797	8491.517574076189	6
0	5800	8491.663566711854	5
0	5802	8494.459810115711	4
0	5804	8496.604410208208	5
0	5807	8506.871895869214	6
0	5810	8508.576122613512	7
0	5813	8512.245176015931	6
0	5815	8512.30254017224	7
0	5818	8522.13162761418	8
0	5820	8522.379932990693	7
0	5823	8524.380222851069	6
0	5825	8528.566010258376	7
0	5828	8529.749084238236	8
0	5830	8530.420169562793	9
0	5832	8531.415447431574	8
0	5835	8536.423603272842	7
0	5838	8537.193102473203	6
0	5840	8549.537837321409	7
0	5843	8552.823016870663	6
0	5845	8555.774693044673	5
0	5847	8556.754486048019	6
0	5850	8558.528769585188	5
0	5852	8560.228655975594	4
0	5854	8561.147524090627	5
0	5857	8563.785801766778	6
0	5860	8564.097410067637	7
0	5863	8574.949666359862	8
0	5865	8576.677051528954	9
0	5867	8579.517058806099	10
0	5869	8583.594766616763	11
0	5871	8586.457003590468	10
0	5874	8594.930005448652	11
0	5876	8594.957756644935	10
0	5879	8602.800287953682	11
0	5881	8603.332904879058	10
0	5884	8604.853478403236	11
0	5886	8605.208834143368	10
0	5889	8609.416033317437	11
0	5891	8609.451372445572	12
0	5893	8610.183078049276	13
0	5895	8611.387617529401	14
0	5897	8621.9607553133	15
0	5899	8624.765885956614	16
0	5901	8625.797588742187	15
0	5904	8625.968216232353	16
0	5906	8627.70942369021	17
0	5908	8628.676483073143	16
0	5911	8632.849783355347	15
0	5914	8635.14968614547	14
0	5917	8635.620875138347	15
0	5919	8636.519320281861	14
0	5922	8641.989086551543	15
0	5924	8642.477989458533	16
0	5926	8644.310608424759	15
0	5929	8644.363688801612	16
0	5931	8648.856990467487	15
0	5934	8650.22804469372	14
0	5937	8656.391640054733	13
0	5940	8656.584672847943	12
0	5943	8662.897132511397	11
0	5946	8671.720745161495	12
0	5948	8672.377367838475	11
0	5951	8678.329299023716	10
0	5954	8680.53532783297	9
0	5957	8682.642119466816	8
0	5960	8683.254897962043	7
0	5963	8683.290000801106	6
0	5965	8683.779123939358	7
0	5968	8684.003401497084	6
0	5970	8684.210486238942	5
0	5972	8687.356880858543	6
0	5975	8692.660617036815	7
0	5978	8696.662268678865	8
0	5980	8699.7555532035	7
0	5983	8701.186692648611	6
0	5985	8704.820834034829	7
0	5988	8707.221825856611	6
0	5990	8708.181357609917	5
0	5992	8708.59149480684	4
0	5994	8712.670444949835	3
0	5996	8714.425166426103	2
0	5998	8726.088842302454	3
0	6001	8727.557305437433	4
0	6004	8731.354257961751	5
0	6007	8732.015272826649	4
0	6009	8732.803383223601	3
0	6011	8732.946190247732	2
0	6013	8744.197510706595	1
0	6015	8752.04261163371	2
0	6018	8753.835593224586	3
0	6021	8763.943675910447	4
0	6024	8766.884339466418	3
0	6026	8768.746254096844	2
0	6028	8769.107881507885	3
0	6031	8770.453466331684	4
0	6034	8772.226210692208	5
0	6037	8782.51443296539	6
0	6040	8787.707881957332	7
0	6043	8789.358271046845	8
0	6045	8790.740380705983	7
0	6048	8799.567658517542	8
0	6050	8800.558166524933	7
0	6053	8813.727543647624	8
0	6055	8819.3097745975	7
0	6058	8821.494107934951	6
0	6060	8826.448227358298	5
0	6062	8837.548669527398	6
0	6065	8839.300305824525	7
0	6068	8847.615806449618	6
0	6070	8849.076735356802	7
0	6073	8849.09909811639	6
0	6075	8849.132504440117	5
0	6077	8852.601137221623	4
0	6079	8856.092635660057	3
0	6081	8875.092198603893	4
0	6084	8877.935091156833	3
0	6086	8885.657878207038	4
0	6089	8885.666386156698	3
0	6091	8892.003343722094	4
0	6094	8897.527599043175	3
0	6096	8898.744985076027	2
0	6098	8901.433743075533	3
0	6101	8903.450858265154	4
0	6104	8903.535103552156	5
0	6107	8905.448542095084	6
0	6110	8906.165905847528	7
0	6113	8909.525921534502	6
0	6115	8914.07653838233	7
0	6118	8920.04119260095	8
0	6120	8928.066361548857	9
0	6122	8930.379999595326	10
0	6124	8933.270961941414	11
0	6126	8936.52912383609	12
0	6128	8940.36614321177	11
0	6131	8941.273400882884	10
0	6134	8942.748073188267	9
0	6137	8943.586970643095	8
0	6140	8947.151757202355	7
0	6143	8948.995132904186	6
0	6145	8950.087684967107	7
0	6148	8953.628385867724	6
0	6150	8959.544673770852	5
0	6152	8963.481756973091	6
0	6155	8967.826574162268	7
0	6158	8972.75714124868	8
0	6160	8977.508646530667	7
0	6163	8986.20711714632	8
0	6165	9006.419993805539	7
0	6168	9009.918674363836	6
0	6170	9011.583456392115	7
0	6173	9014.04887697081	8
0	6175	9021.870676578224	9
0	6177	9029.045922665771	8
0	6180	9029.813307749367	7
0	6183	9037.888333324014	6
0	6185	9044.338494860635	5
0	6187	9046.391430491601	4
0	6189	9049.182209843613	3
0	6191	9054.669780731433	4
0	6194	9059.154179942094	5
0	6197	9075.619085729283	6
0	6200	9081.654496704186	7
0	6203	9086.415760915774	8
0	6205	9089.699935482766	9
0	6207	9090.581025991231	8
0	6210	9092.96830835246	9
0	6212	9093.541287945395	8
0	6215	9098.333516219957	7
0	6218	9102.303582265729	6
0	6220	9103.312160369297	5
0	6222	9107.160913136464	4
0	6224	9111.430973113885	3
0	6226	9112.987280811876	4
0	6229	9113.228530587358	5
0	6232	9113.839235274558	6
0	6235	9116.119928816816	5
0	6237	9120.313058855953	4
0	6239	9151.467453935784	5
0	6242	9156.779757269996	4
0	6244	9164.271457728943	3
0	6246	9174.131462037687	2
0	6248	9194.614174784453	3
0	6251	9197.475744726765	2
0	6253	9203.753422608804	3
0	6256	9204.644820429332	4
0	6259	9205.908635392022	3
0	6261	9206.322278854644	4
0	6264	9206.414183698467	5
0	6267	9206.782916762696	6
0	6270	9208.489757487118	5
0	6272	9209.422669477737	4
0	6274	9209.751682653527	5
0	6277	9209.857495694724	6
0	6280	9210.721769486083	5
0	6282	9212.02715365839	4
0	6284	9216.038679500327	3
0	6286	9219.147378427299	2
0	6288	9223.557218585294	1
0	6290	9230.633957416866	2
0	6293	9239.30715140054	3
0	6296	9242.514594748497	4
0	6299	9243.424535523822	5
0	6302	9246.162390088243	4
0	6304	9251.534018119277	5
0	6307	9254.502036465989	6
0	6310	9255.558581772206	7
0	6313	9257.164096831387	6
0	6315	9258.503328809502	7
0	6318	9258.660298342548	6
0	6320	9271.784641064582	5
0	6322	9273.863308604926	6
0	6325	9274.863028788716	7
0	6328	9277.704400582865	8
0	6330	9287.151951840289	7
0	6333	9294.98750426608	6
0	6335	9300.056867453127	5
0	6337	9301.193762659303	6
0	6340	9306.874903926556	5
0	6342	9317.572154677958	6
0	6345	9335.844086072724	5
0	6347	9338.838371483047	4
0	6349	9339.510730389374	3
0	6351	9347.887251852733	4
0	6354	9358.779129757794	3
0	6356	9361.45843110218	2
0	6358	9365.335506065623	3
0	6361	9384.122800839117	4
0	6364	9390.181392856645	5
0	6367	9393.253712229267	4
0	6369	9394.921555063551	3
0	6371	9402.905542782308	4
0	6374	9405.672504639886	3
0	6376	9413.678977603537	4
0	6379	9414.220322634667	5
0	6382	9415.88136184173	4
0	6384	9417.388860125989	3
0	6386	9419.477485582513	4
0	6389	9419.497623271463	3
0	6391	9422.411405189599	2
0	6393	9429.577044729673	3
0	6396	9432.089788933602	4
0	6399	9436.958920148769	5
0	6402	9437.763909188504	4
0	6404	9445.601633494638	5
0	6407	9446.915761461172	6
0	6410	9450.187490451543	5
0	6412	9452.280612062883	4
0	6414	9458.092730648432	3
0	6416	9459.073288200453	4
0	6419	9467.397247287348	5
0	6422	9468.977885654364	4
0	6424	9469.603695313408	5
0	6427	9469.841058632092	6
0	6430	9470.853853479588	5
0	6432	9483.415516839403	6
0	6435	9484.91712704622	5
0	6437	9490.0240647469	4
0	6439	9490.361381590826	3
0	6441	9494.61934062948	4
0	6444	9498.894707812916	3
0	6446	9500.307823518488	4
0	6449	9507.952100885237	3
0	6451	9517.946624451559	4
0	6454	9524.141480365821	3
0	6456	9524.351895799156	4
0	6459	9524.435370133499	5
0	6462	9527.156504442865	6
0	6465	9530.329671454384	7
0	6468	9531.587100445202	8
0	6470	9535.527637732992	7
0	6473	9541.920321147983	6
0	6475	9545.69206079159	7
0	6478	9548.036683155452	6
0	6480	9560.687060638755	5
0	6482	9564.691273614057	4
0	6484	9572.667730729658	5
0	6487	9573.463948733935	4
0	6489	9573.623384564192	5
0	6492	9575.815027488397	6
0	6495	9576.015073829072	7
0	6498	9584.921633279407	6
0	6500	9590.31512246837	5
0	6502	9590.384194408392	6
0	6505	9591.974495270349	5
0	6507	9594.421748977673	4
0	6509	9597.853180215685	3
0	6511	9603.855483403891	4
0	6514	9605.324580878293	3
0	6516	9606.113440158821	2
0	6518	9608.409026282982	3
0	6521	9610.698814307465	4
0	6524	9611.468511931167	5
0	6527	9613.761403382583	6
0	6530	9617.331069876284	5
0	6532	9622.350094554023	4
0	6534	9629.893419379494	3
0	6536	9631.468983262239	4
0	6539	9632.847035546793	5
0	6542	9632.983663199998	4
0	6544	9634.33018240751	3
0	6546	9645.335069938771	4
0	6549	9647.91939928975	5
0	6552	9649.267498483568	4
0	6554	9649.868570851904	5
0	6557	9654.347442217807	6
0	6560	9660.788882863974	7
0	6563	9663.180680211322	8
0	6565	9665.354068281028	7
0	6568	9670.25603694337	8
0	6570	9673.913646596106	9
0	6572	9676.627959427491	10
0	6574	9680.065557798474	11
0	6576	9681.595827316961	10
0	6579	9691.482399047326	9
0	6582	9701.665566260849	10
0	6584	9701.988295333906	9
0	6587	9703.762521868988	8
0	6590	9704.905717216696	9
0	6592	9705.532334510752	8
0	6595	9705.698671833944	7
0	6598	9708.459191174177	6
0	6600	9708.926153304033	5
0	6602	9717.506192618022	6
0	6605	9720.398167360188	7
0	6608	9720.684107584406	8
0	6610	9723.712285817944	9
0	6612	9725.672334544333	8
0	6615	9726.49979763085	7
0	6618	9727.515743780512	8
0	6620	9730.035897800876	9
0	6622	9733.580502612312	10
0	6624	9746.677639580292	9
0	6627	9752.024788031474	10
0	6629	9754.429022090026	11
0	6631	9755.150756014477	10
0	6634	9758.506577555768	9
0	6637	9765.618067162934	8
0	6640	9768.448825594797	7
0	6643	9780.023953617618	6
0	6645	9781.712752570104	7
0	6648	9781.958394626147	6
0	6650	9783.193753749331	5
0	6652	9787.367696160393	4
0	6654	9789.057124538461	5
0	6657	9795.558664380634	4
0	6659	9800.277553222742	3
0	6661	9807.217954879625	4
0	6664	9812.046498979959	3
0	6666	9815.606549123403	2
0	6668	9817.548703723796	3
0	6671	9821.286688065915	4
0	6674	9825.302212215266	5
0	6677	9826.30793540792	4
0	6679	9833.66155337659	5
0	6682	9839.49426347999	6
0	6685	9839.742323813939	5
0	6687	9842.479507127366	6
0	6690	9846.712683427634	5
0	6692	9853.36135882375	4
0	6694	9859.141002158723	5
0	6697	9872.425677406055	6
0	6700	9874.870441248129	7
0	6703	9876.188244274174	6
0	6705	9876.230181207717	5
0	6707	9886.432659574572	4
0	6709	9887.939175230844	5
0	6712	9899.101403510912	6
0	6715	9908.879620966282	5
0	6717	9911.756673786062	6
0	6720	9913.791283863081	5
0	6722	9914.126086856816	6
0	6725	9915.071268212689	7
0	6728	9917.499811589796	6
0	6730	9921.111627882284	5
0	6732	9922.166430174756	4
0	6734	9922.563977207857	3
0	6736	9925.161612389865	4
0	6739	9938.515036765888	5
0	6742	9943.630460930337	4
0	6744	9943.6715322104	3
0	6746	9955.991969534352	4
0	6749	9958.277562558691	3
0	6751	9960.475067163296	2
0	6753	9968.088729306468	3
0	6756	9978.974266244063	4
0	6759	9981.170692013395	3
0	6761	9989.975064795476	2
0	6763	9992.376879981136	1
0	6765	9996.282429246249	2
0	6768	9999.678052693142	1
0	6770	10002.072810291424	2
0	6773	10005.186643972563	3
0	6776	10005.472423031091	4
0	6779	10006.379254747808	5
0	6782	10009.09639094911	4
0	6784	10014.899918467501	3
0	6786	10018.077051404194	4
0	6789	10019.483789861323	5
0	6792	10019.987931702497	6
0	6795	10020.925633098597	5
0	6797	10028.925067536587	6
0	6800	10034.369530735251	5
0	6802	10040.250416611425	4
0	6804	10044.940944110548	5
0	6807	10054.95924590379	6
0	6810	10056.142527594601	7
0	6813	10058.308961517154	8
0	6815	10058.743222398664	7
0	6818	10067.104819510924	6
0	6820	10068.722828160909	7
0	6823	10068.908673733699	6
0	6825	10079.892398732534	5
0	6827	10081.718836538344	4
0	6829	10081.830358766259	5
0	6832	10081.964690185644	4
0	6834	10089.312428985283	5
0	6837	10093.248334282747	4
0	6839	10094.932763291261	3
0	6841	10100.146931401346	2
0	6843	10108.424194323568	1
0	6845	10109.349676714673	2
0	6848	10110.444488578024	1
0	6850	10118.160988837174	2
0	6853	10120.979068066406	1
0	6855	10134.997183436871	0
0	6857	10151.559450347712	1
0	6860	10152.753514531088	2
0	6863	10199.353373399652	3
0	6866	10205.117997696807	4
0	6869	10210.326830432283	3
0	6871	10210.922103889434	4
0	6874	10219.836414084626	3
0	6876	10220.481191835752	2
0	6878	10224.44564273191	1
0	6880	10224.682455953743	2
0	6883	10225.664451522204	1
0	6885	10227.95419643578	0
0	6887	10234.316486890924	1
0	6890	10237.297171685688	2
0	6893	10237.934356674813	3
0	6896	10244.131408352082	2
0	6898	10254.157236670228	3
0	6901	10255.342239543843	2
0	6903	10272.669762424626	3
0	6906	10275.529174123658	4
0	6909	10283.643314050897	3
0	6911	10288.96731239365	4
0	6914	10293.542689246396	5
0	6917	10297.101266081858	6
0	6920	10298.719010552566	5
0	6922	10300.725245160027	6
0	6925	10311.869585208298	5
0	6927	10315.399477809325	4
0	6929	10320.799008981575	3
0	6931	10322.166908466365	2
0	6933	10330.464707125117	3
0	6936	10335.400178655934	2
0	6938	10339.515502328969	1
0	6940	10343.093197494505	2
0	6943	10346.995099079829	3
0	6946	10348.144188185322	2
0	6948	10370.595646245423	1
0	6950	10377.681896085123	2
0	6953	10377.812633666302	3
0	6956	10389.408189793172	4
0	6959	10389.55899796966	5
0	6962	10417.74598598574	6
0	6965	10420.398174758606	5
0	6967	10424.030534281256	6
0	6970	10425.485616203232	5
0	6972	10426.069940052789	6
0	6975	10426.414888176216	5
0	6977	10430.753562132634	6
0	6980	10432.242710909345	5
0	6982	10434.49354216193	4
0	6984	10435.981852822079	3
0	6986	10442.447782270218	2
0	6988	10447.113415873828	3
0	6991	10447.321705199421	4
0	6994	10448.7425259528	3
0	6996	10451.403136498958	4
0	6999	10455.077919135981	5
0	7002	10456.436796163307	6
0	7005	10459.08841902251	5
0	7007	10459.732648605606	4
0	7009	10460.79903561222	5
0	7012	10466.674396947992	4
0	7014	10468.201838294163	5
0	7017	10472.360822502816	6
0	7020	10472.693437656293	5
0	7022	10475.219528939376	4
0	7024	10475.772304030696	3
0	7026	10479.720544256681	4
0	7029	10501.699360126043	3
0	7031	10524.778271711075	2
0	7033	10529.754256858352	3
0	7036	10535.571089264961	4
0	7039	10536.934315717971	5
0	7042	10550.301969264254	4
0	7044	10557.694827011139	5
0	7047	10562.290048300424	6
0	7050	10564.677911197665	5
0	7052	10571.901329625876	6
0	7055	10574.421565618125	7
0	7058	10583.061609647557	6
0	7060	10583.463960698814	5
0	7062	10591.996452482722	4
0	7064	10592.291566077631	5
0	7067	10605.752723974653	4
0	7069	10612.346529937382	3
0	7071	10620.072279064294	4
0	7074	10625.990730343654	3
0	7076	10647.291964835744	2
0	7078	10648.984423542927	1
0	7080	10649.738030425514	2
0	7083	10656.867090172634	3
0	7086	10662.510658647019	4
0	7089	10666.732003859138	3
0	7091	10672.254865252804	4
0	7094	10685.36015473516	3
0	7096	10686.475840015437	2
0	7098	10694.324612060871	3
0	7101	10702.721741718796	4
0	7104	10707.131690817415	3
0	7106	10707.830761047977	2
0	7108	10708.081341070912	3
0	7111	10719.346621213065	4
0	7114	10724.027465851494	5
0	7117	10738.828087381996	4
0	7119	10741.35194349872	5
0	7122	10741.540634820973	6
0	7125	10743.775400576362	5
0	7127	10743.874720394867	6
0	7130	10744.974379181948	7
0	7133	10747.044480782795	8
0	7135	10752.823723377264	7
0	7138	10756.910624587439	8
0	7140	10757.052487117328	7
0	7143	10764.293959834936	8
0	7145	10771.585392722789	7
0	7148	10780.945410742234	6
0	7150	10781.462967349433	7
0	7153	10783.618186420933	8
0	7155	10784.007023720104	9
0	7157	10794.150675575869	8
0	7160	10794.510967488333	9
0	7162	10795.46469837521	8
0	7165	10795.83711534137	7
0	7168	10799.121337934671	8
0	7170	10804.498901155852	7
0	7173	10807.84646510617	8
0	7175	10808.812611855192	9
0	7177	10810.265722633302	8
0	7180	10811.000477828136	9
0	7182	10812.405236601736	10
0	7184	10813.760655710359	9
0	7187	10814.050757900892	10
0	7189	10821.427857153952	11
0	7191	10824.42861366445	12
0	7193	10829.571727690824	11
0	7196	10839.230350140212	10
0	7199	10845.197950081671	9
0	7202	10846.694681256939	8
0	7205	10848.593009395069	7
0	7208	10853.299615017242	6
0	7210	10853.929321423278	5
0	7212	10854.752360757312	4
0	7214	10856.109601805987	5
0	7217	10859.358442689143	4
0	7219	10859.759404477384	5
0	7222	10866.444519703846	6
0	7225	10871.270136132084	5
0	7227	10873.575486225143	6
0	7230	10874.544324346503	7
0	7233	10885.847020368621	6
0	7235	10885.935926731674	7
0	7238	10891.877483945141	8
0	7240	10893.963976757934	7
0	7243	10894.990487980247	8
0	7245	10895.650256540223	9
0	7247	10901.227853878177	10
0	7249	10905.875629548712	9
0	7252	10908.332724675556	8
0	7255	10911.459271317445	9
0	7257	10916.276371309286	8
0	7260	10918.472583396537	9
0	7262	10919.495852704016	10
0	7264	10921.976374488169	11
0	7266	10932.807568789726	12
0	7268	10939.58115358373	11
0	7271	10942.817388023694	12
0	7273	10946.269268842337	11
0	7276	10950.466476543837	10
0	7279	10951.540853258132	9
0	7282	10954.62164219915	10
0	7284	10959.510805151092	11
0	7286	10960.000140149808	10
0	7289	10960.075184326696	11
0	7291	10962.40523858181	10
0	7294	10967.673661509814	9
0	7297	10968.479051549976	10
0	7299	10970.734603173019	9
0	7302	10973.661769875604	10
0	7304	10973.69705688603	9
0	7307	10979.249763064947	10
0	7309	10979.684360050808	9
0	7312	10983.161860553536	8
0	7315	10983.923114686629	9
0	7317	10988.439648795682	10
0	7319	10990.469597211263	11
0	7321	11000.589760350332	12
0	7323	11008.168893003739	11
0	7326	11008.803627514717	12
0	7328	11008.903130533301	13
0	7330	11010.749185321522	14
0	7332	11011.418798387939	15
0	7334	11016.589418600716	14
0	7337	11016.613065987009	13
0	7340	11018.57319167118	14
0	7342	11023.937651900498	13
0	7345	11025.44440612583	14
0	7347	11027.28364006827	15
0	7349	11033.427459405361	14
0	7352	11034.361894872203	13
0	7355	11039.430722926086	12
0	7358	11039.894998664782	11
0	7361	11040.723455368093	12
0	7363	11042.882125763631	13
0	7365	11049.477950537082	14
0	7367	11054.556424401182	15
0	7369	11061.958908746874	16
0	7371	11062.787866639263	17
0	7373	11064.013913592415	16
0	7376	11064.376401134461	15
0	7379	11064.781516918214	16
0	7381	11066.575790043039	17
0	7383	11069.492135897407	16
0	7386	11079.520306970332	15
0	7389	11086.735854230053	16
0	7391	11092.990237787021	17
0	7393	11094.830583233904	18
0	7395	11095.77501114017	19
0	7397	11097.169281188084	18
0	7400	11105.101713765345	19
0	7402	11107.244590410303	20
0	7404	11107.387423700858	19
0	7407	11111.007305597029	20
0	7409	11115.344680767601	19
0	7412	11123.63086608924	20
0	7414	11125.53214359031	21
0	7416	11129.359337170315	22
0	7418	11137.794340608509	21
0	7421	11142.996903097527	20
0	7424	11143.121906075547	21
0	7426	11144.178274625929	20
0	7429	11151.737584982554	21
0	7431	11152.711080103094	22
0	7433	11164.355448192538	23
0	7435	11168.336237103544	22
0	7438	11176.219676975662	23
0	7440	11179.192188125937	22
0	7443	11184.43220094937	21
0	7446	11186.82460089543	20
0	7449	11189.727609091124	21
0	7451	11191.441921969876	20
0	7454	11194.031478306415	19
0	7457	11195.006244903258	20
0	7459	11196.996858624761	21
0	7461	11220.916411754726	22
0	7463	11232.067910411307	23
0	7465	11232.398708434252	22
0	7468	11236.896729342036	21
0	7471	11238.450706407159	22
0	7473	11241.821739210294	21
0	7476	11242.366026992055	20
0	7479	11245.464211524739	19
0	7482	11255.067536831852	20
0	7484	11258.429046811787	19
0	7487	11258.452329015029	18
0	7490	11260.417577485597	17
0	7493	11261.013402600225	18
0	7495	11261.573998131734	17
0	7498	11263.849614131196	18
0	7500	11271.464562177728	17
0	7503	11275.324462884907	16
0	7506	11279.8394817532	15
0	7509	11280.395082994473	16
0	7511	11280.39697258217	15
0	7514	11283.741263304429	14
0	7517	11285.516281947336	15
0	7519	11290.067198529402	14
0	7522	11293.840368433115	15
0	7524	11295.833733457938	16
0	7526	11296.896698199066	15
0	7529	11297.257118801868	14
0	7532	11299.028374398482	15
0	7534	11299.765704961962	14
0	7537	11307.68125549394	13
0	7540	11317.391521668322	14
0	7542	11317.475556026079	15
0	7544	11323.689534930152	14
0	7547	11326.693184781044	13
0	7550	11331.817830225568	12
0	7553	11336.267903239153	11
0	7556	11336.794211264936	10
0	7559	11339.321871992041	9
0	7562	11339.939186088968	8
0	7565	11341.160662344702	7
0	7568	11341.967751983788	8
0	7570	11343.147361193277	9
0	7572	11345.066202846669	10
0	7574	11345.247366453744	9
0	7577	11356.834676092954	10
0	7579	11357.144715948108	11
0	7581	11366.380398657286	10
0	7584	11371.465999345475	11
0	7586	11371.706445654036	10
0	7589	11377.826082617267	9
0	7592	11378.159344244385	10
0	7594	11380.66513786549	9
0	7597	11380.763782061014	8
0	7600	11386.219819699023	7
0	7603	11386.900695877466	8
0	7605	11388.217779864931	9
0	7607	11390.170208644653	8
0	7610	11395.073585385276	9
0	7612	11395.21537684417	8
0	7615	11395.867919484262	9
0	7617	11400.142738843452	8
0	7620	11406.297150166817	7
0	7623	11414.574612257251	6
0	7625	11414.994714056229	7
0	7628	11424.793813947118	8
0	7630	11432.729969466751	7
0	7633	11434.818422193683	8
0	7635	11435.935450235958	7
0	7638	11446.816113806661	8
0	7640	11452.076810124985	9
0	7642	11457.082043409638	8
0	7645	11460.633934129867	9
0	7647	11461.344351145977	8
0	7650	11466.626242115511	7
0	7653	11470.465247918094	8
0	7655	11473.922083924071	7
0	7658	11475.1215118963	6
0	7660	11477.595615324479	5
0	7662	11481.706995919248	4
0	7664	11484.825546153237	5
0	7667	11487.160759633154	4
0	7669	11488.747872622102	3
0	7671	11492.984833143216	4
0	7674	11495.174867833089	3
0	7676	11514.895824937734	4
0	7679	11515.097870565708	5
0	7682	11524.85283337077	6
0	7685	11537.85225424846	7
0	7688	11541.838308678988	8
0	7690	11543.016668901671	7
0	7693	11546.318742125933	6
0	7695	11552.812667703074	7
0	7698	11554.001302382332	8
0	7700	11554.321005244944	7
0	7703	11557.917330272878	8
0	7705	11558.944291452453	9
0	7707	11563.830338152675	8
0	7710	11566.005610977809	9
0	7712	11566.716011200396	10
0	7714	11568.87324850707	11
0	7716	11573.831547399745	12
0	7718	11576.330863408107	11
0	7721	11603.658776987842	10
0	7724	11604.179507055638	9
0	7727	11608.188359104952	8
0	7730	11609.645909324677	9
0	7732	11611.990430675179	8
0	7735	11613.426715444045	7
0	7738	11620.107926118469	6
0	7740	11626.203934877711	7
0	7743	11626.911685243954	6
0	7745	11633.312995612238	7
0	7748	11634.203823247641	6
0	7750	11641.285281891267	5
0	7752	11642.469564291562	6
0	7755	11644.24549687297	7
0	7758	11647.748584408623	8
0	7760	11649.486272375244	7
0	7763	11649.643047590936	6
0	7765	11655.715605448266	5
0	7767	11662.277635487543	4
0	7769	11666.977908194479	3
0	7771	11683.01715817715	2
0	7773	11684.725279359192	3
0	7776	11695.815998254547	4
0	7779	11711.160099414822	5
0	7782	11712.528618876284	4
0	7784	11722.159595819836	3
0	7786	11722.620409942129	2
0	7788	11724.621844865755	1
0	7790	11724.856754627978	2
0	7793	11728.230986692112	3
0	7796	11731.133596261833	4
0	7799	11739.694752093713	5
0	7802	11742.920355675315	4
0	7804	11743.455310628162	5
0	7807	11753.063928274873	4
0	7809	11755.686466715603	3
0	7811	11765.087024643872	4
0	7814	11772.177795010276	3
0	7816	11785.330771416769	2
0	7818	11797.221437898596	3
0	7821	11803.772506267211	4
0	7824	11809.713853309044	5
0	7827	11817.393810812107	6
0	7830	11821.854506554773	7
0	7833	11825.642737925092	6
0	7835	11826.918289944448	7
0	7838	11829.820440805159	6
0	7840	11832.752973327176	7
0	7843	11843.336418279977	6
0	7845	11844.267786267206	5
0	7847	11845.253256597891	4
0	7849	11853.273464176917	3
0	7851	11868.927294245637	2
0	7853	11874.871665824962	3
0	7856	11878.896698720193	2
0	7858	11893.124454158688	1
0	7860	11902.6557372695	2
0	7863	11924.337001442798	3
0	7866	11928.405090189293	4
0	7869	11928.634388451677	5
0	7872	11930.983438648609	6
0	7875	11931.842391873749	5
0	7877	11935.742793266508	6
0	7880	11943.987758597492	7
0	7883	11947.311590171791	8
0	7885	11949.300876898122	7
0	7888	11949.477669376251	6
0	7890	11952.241166272631	7
0	7893	11953.595736259935	8
0	7895	11953.731248664007	7
0	7898	11954.304651674313	8
0	7900	11955.655127323535	7
0	7903	11957.108430512633	8
0	7905	11957.766327604744	9
0	7907	11959.513154861474	8
0	7910	11962.901923435403	7
0	7913	11964.858180036562	6
0	7915	11967.871870476202	7
0	7918	11968.115401819731	6
0	7920	11972.726184035797	7
0	7923	11978.066168130224	8
0	7925	11982.273195271743	7
0	7928	11982.507944139846	6
0	7930	11982.923336658136	7
0	7933	11985.722915771266	6
0	7935	11985.872135758514	7
0	7938	11988.555535405911	6
0	7940	12000.108157822398	7
0	7943	12000.236485020024	6
0	7945	12004.775825779861	5
0	7947	12006.61537618314	4
0	7949	12007.495269261234	3
0	7951	12020.308858795532	4
0	7954	12021.679928049858	5
0	7957	12030.531244247784	4
0	7959	12031.199277677221	5
0	7962	12031.896656640956	4
0	7964	12033.612389361335	5
0	7967	12036.204054071346	6
0	7970	12044.284431461232	5
0	7972	12058.224290156023	6
0	7975	12060.813657390086	5
0	7977	12068.907725938075	4
0	7979	12070.830531898126	5
0	7982	12077.481807287779	4
0	7984	12078.808752346266	5
0	7987	12084.858122108558	4
0	7989	12085.927355864848	3
0	7991	12090.981799333199	2
0	7993	12092.678080871178	1
0	7995	12131.605694407347	2
0	7998	12133.426621703298	1
0	8000	12141.603289075701	2
0	8003	12151.35057942905	3
0	8006	12158.182792856079	4
0	8009	12163.335045625929	5
0	8012	12167.894135264052	4
0	8014	12167.905455196096	3
0	8016	12168.150005010565	4
0	8019	12180.846069704008	5
0	8022	12186.763670829779	6
0	8025	12192.846622894898	7
0	8028	12199.095746309224	6
0	8030	12199.374146801293	7
0	8033	12200.552753206383	6
0	8035	12202.656523541943	5
0	8037	12204.285498547667	4
0	8039	12206.212568683783	5
0	8042	12208.603983799223	4
0	8044	12210.241022146097	3
0	8046	12210.813888424143	2
0	8048	12214.346603087372	1
0	8050	12220.942982446624	2
0	8053	12227.851870127437	1
0	8055	12248.048437016351	2
0	8058	12252.785461491779	1
0	8060	12256.944150013778	2
0	8063	12273.819310323268	1
0	8065	12279.818039162961	2
0	8068	12285.747472017489	1
0	8070	12294.342557881358	2
0	8073	12301.461019813795	3
0	8076	12304.821463736376	4
0	8079	12305.755337033335	3
0	8081	12306.907795355558	4
0	8084	12307.512712061016	5
0	8087	12312.983910572615	6
0	8090	12313.65695234416	5
0	8092	12313.797811230441	6
0	8095	12318.374527084042	7
0	8098	12333.852219439977	6
0	8100	12338.249374109986	5
0	8102	12343.326022928912	4
0	8104	12343.706506137074	3
0	8106	12353.984619300524	2
0	8108	12356.936700625667	3
0	8111	12360.152117843239	4
0	8114	12362.485909181136	5
0	8117	12362.877745608282	4
0	8119	12369.0551759793	3
0	8121	12369.891590174847	4
0	8124	12372.472146273861	5
0	8127	12373.26793707098	6
0	8130	12373.567282447609	5
0	8132	12374.525720276507	4
0	8134	12377.270756033721	3
0	8136	12380.736683674655	2
0	8138	12381.331310222164	1
0	8140	12412.426279001335	2
0	8143	12413.410471196458	3
0	8146	12413.483523301224	4
0	8149	12414.245007849833	3
0	8151	12421.56729061394	2
0	8153	12429.72939673964	1
0	8155	12441.45330393471	2
0	8158	12454.624022302579	3
0	8161	12464.249759985591	2
0	8163	12479.066984594345	3
0	8166	12482.578642796996	4
[...]
1	7482	11255.067536831852	13
1	7484	11258.429046811787	12
1	7487	11258.452329015029	11
1	7490	11260.417577485597	10
1	7493	11261.013402600225	11
1	7495	11261.573998131734	10
1	7498	11263.849614131196	11
1	7500	11271.464562177728	10
1	7503	11275.324462884907	9
1	7506	11279.8394817532	8
1	7509	11280.395082994473	9
1	7511	11280.39697258217	8
1	7514	11283.741263304429	7
1	7517	11285.516281947336	8
1	7519	11290.067198529402	7
1	7522	11293.840368433115	8
1	7524	11295.833733457938	9
1	7526	11296.896698199066	8
1	7529	11297.257118801868	7
1	7532	11299.028374398482	8
1	7534	11299.765704961962	7
1	7537	11307.68125549394	6
1	7540	11317.391521668322	7
1	7542	11317.475556026079	8
1	7544	11323.689534930152	7
1	7547	11326.693184781044	6
1	7550	11331.817830225568	5
1	7553	11336.267903239153	4
1	7556	11336.794211264936	3
1	7559	11339.321871992041	2
1	7562	11339.939186088968	1
1	7565	11341.160662344702	0
1	7568	11341.967751983788	1
1	7570	11343.147361193277	2
1	7572	11345.066202846669	3
1	7574	11345.247366453744	2
1	7577	11356.834676092954	3
1	7579	11357.144715948108	4
1	7581	11366.380398657286	3
1	7584	11371.465999345475	4
1	7586	11371.706445654036	3
1	7589	11377.826082617267	2
1	7592	11378.159344244385	3
1	7594	11380.66513786549	2
1	7597	11380.763782061014	1
1	7600	11386.219819699023	0
1	7603	11386.900695877466	1
1	7605	11388.217779864931	2
1	7607	11390.170208644653	1
1	7610	11395.073585385276	2
1	7612	11395.21537684417	1
1	7615	11395.867919484262	2
1	7617	11400.142738843452	1
1	7620	11406.297150166817	0
1	7623	11414.574612257251	0
1	7625	11414.994714056229	0
1	7628	11424.793813947118	1
1	7630	11432.729969466751	0
1	7633	11434.818422193683	1
1	7635	11435.935450235958	0
1	7638	11446.816113806661	1
1	7640	11452.076810124985	2
1	7642	11457.082043409638	1
1	7645	11460.633934129867	2
1	7647	11461.344351145977	1
1	7650	11466.626242115511	0
1	7653	11470.465247918094	1
1	7655	11473.922083924071	0
1	7658	11475.1215118963	0
1	7660	11477.595615324479	0
1	7662	11481.706995919248	0
1	7664	11484.825546153237	0
1	7667	11487.160759633154	0
1	7669	11488.747872622102	0
1	7671	11492.984833143216	0
1	7674	11495.174867833089	0
1	7676	11514.895824937734	0
1	7679	11515.097870565708	0
1	7682	11524.85283337077	0
1	7685	11537.85225424846	0
1	7688	11541.838308678988	1
1	7690	11543.016668901671	0
1	7693	11546.318742125933	0
1	7695	11552.812667703074	0
1	7698	11554.001302382332	1
1	7700	11554.321005244944	0
1	7703	11557.917330272878	1
1	7705	11558.944291452453	2
1	7707	11563.830338152675	1
1	7710	11566.005610977809	2
1	7712	11566.716011200396	3
1	7714	11568.87324850707	4
1	7716	11573.831547399745	5
1	7718	11576.330863408107	4
1	7721	11603.658776987842	3
1	7724	11604.179507055638	2
1	7727	11608.188359104952	1
1	7730	11609.645909324677	2
1	7732	11611.990430675179	1
1	7735	11613.426715444045	0
1	7738	11620.107926118469	0
1	7740	11626.203934877711	0
1	7743	11626.911685243954	0
1	7745	11633.312995612238	0
1	7748	11634.203823247641	0
1	7750	11641.285281891267	0
1	7752	11642.469564291562	0
1	7755	11644.24549687297	0
1	7758	11647.748584408623	1
1	7760	11649.486272375244	0
1	7763	11649.643047590936	0
1	7765	11655.715605448266	0
1	7767	11662.277635487543	0
1	7769	11666.977908194479	0
1	7771	11683.01715817715	0
1	7773	11684.725279359192	0
1	7776	11695.815998254547	0
1	7779	11711.160099414822	0
1	7782	11712.528618876284	0
1	7784	11722.159595819836	0
1	7786	11722.620409942129	0
1	7788	11724.621844865755	0
1	7790	11724.856754627978	0
1	7793	11728.230986692112	0
1	7796	11731.133596261833	0
1	7799	11739.694752093713	0
1	7802	11742.920355675315	0
1	7804	11743.455310628162	0
1	7807	11753.063928274873	0
1	7809	11755.686466715603	0
1	7811	11765.087024643872	0
1	7814	11772.177795010276	0
1	7816	11785.330771416769	0
1	7818	11797.221437898596	0
1	7821	11803.772506267211	0
1	7824	11809.713853309044	0
1	7827	11817.393810812107	0
1	7830	11821.854506554773	0
1	7833	11825.642737925092	0
1	7835	11826.918289944448	0
1	7838	11829.820440805159	0
1	7840	11832.752973327176	0
1	7843	11843.336418279977	0
1	7845	11844.267786267206	0
1	7847	11845.253256597891	0
1	7849	11853.273464176917	0
1	7851	11868.927294245637	0
1	7853	11874.871665824962	0
1	7856	11878.896698720193	0
1	7858	11893.124454158688	0
1	7860	11902.6557372695	0
1	7863	11924.337001442798	0
1	7866	11928.405090189293	0
1	7869	11928.634388451677	0
1	7872	11930.983438648609	0
1	7875	11931.842391873749	0
1	7877	11935.742793266508	0
1	7880	11943.987758597492	0
1	7883	11947.311590171791	1
1	7885	11949.300876898122	0
1	7888	11949.477669376251	0
1	7890	11952.241166272631	0
1	7893	11953.595736259935	1
1	7895	11953.731248664007	0
1	7898	11954.304651674313	1
1	7900	11955.655127323535	0
1	7903	11957.108430512633	1
1	7905	11957.766327604744	2
1	7907	11959.513154861474	1
1	7910	11962.901923435403	0
1	7913	11964.858180036562	0
1	7915	11967.871870476202	0
1	7918	11968.115401819731	0
1	7920	11972.726184035797	0
1	7923	11978.066168130224	1
1	7925	11982.273195271743	0
1	7928	11982.507944139846	0
1	7930	11982.923336658136	0
1	7933	11985.722915771266	0
1	7935	11985.872135758514	0
1	7938	11988.555535405911	0
1	7940	12000.108157822398	0
1	7943	12000.236485020024	0
1	7945	12004.775825779861	0
1	7947	12006.61537618314	0
1	7949	12007.495269261234	0
1	7951	12020.308858795532	0
1	7954	12021.679928049858	0
1	7957	12030.531244247784	0
1	7959	12031.199277677221	0
1	7962	12031.896656640956	0
1	7964	12033.612389361335	0
1	7967	12036.204054071346	0
1	7970	12044.284431461232	0
1	7972	12058.224290156023	0
1	7975	12060.813657390086	0
1	7977	12068.907725938075	0
1	7979	12070.830531898126	0
1	7982	12077.481807287779	0
1	7984	12078.808752346266	0
1	7987	12084.858122108558	0
1	7989	12085.927355864848	0
1	7991	12090.981799333199	0
1	7993	12092.678080871178	0
1	7995	12131.605694407347	0
1	7998	12133.426621703298	0
1	8000	12141.603289075701	0
1	8003	12151.35057942905	0
1	8006	12158.182792856079	0
1	8009	12163.335045625929	0
1	8012	12167.894135264052	0
1	8014	12167.905455196096	0
1	8016	12168.150005010565	0
1	8019	12180.846069704008	0
1	8022	12186.763670829779	0
1	8025	12192.846622894898	0
1	8028	12199.095746309224	0
1	8030	12199.374146801293	0
1	8033	12200.552753206383	0
1	8035	12202.656523541943	0
1	8037	12204.285498547667	0
1	8039	12206.212568683783	0
1	8042	12208.603983799223	0
1	8044	12210.241022146097	0
1	8046	12210.813888424143	0
1	8048	12214.346603087372	0
1	8050	12220.942982446624	0
1	8053	12227.851870127437	0
1	8055	12248.048437016351	0
1	8058	12252.785461491779	0
1	8060	12256.944150013778	0
1	8063	12273.819310323268	0
1	8065	12279.818039162961	0
1	8068	12285.747472017489	0
1	8070	12294.342557881358	0
1	8073	12301.461019813795	0
1	8076	12304.821463736376	0
1	8079	12305.755337033335	0
1	8081	12306.907795355558	0
1	8084	12307.512712061016	0
1	8087	12312.983910572615	0
1	8090	12313.65695234416	0
1	8092	12313.797811230441	0
1	8095	12318.374527084042	0
1	8098	12333.852219439977	0
1	8100	12338.249374109986	0
1	8102	12343.326022928912	0
1	8104	12343.706506137074	0
1	8106	12353.984619300524	0
1	8108	12356.936700625667	0
1	8111	12360.152117843239	0
1	8114	12362.485909181136	0
1	8117	12362.877745608282	0
1	8119	12369.0551759793	0
1	8121	12369.891590174847	0
1	8124	12372.472146273861	0
1	8127	12373.26793707098	0
1	8130	12373.567282447609	0
1	8132	12374.525720276507	0
1	8134	12377.270756033721	0
1	8136	12380.736683674655	0
1	8138	12381.331310222164	0
1	8140	12412.426279001335	0
1	8143	12413.410471196458	0
1	8146	12413.483523301224	0
1	8149	12414.245007849833	0
1	8151	12421.56729061394	0
1	8153	12429.72939673964	0
1	8155	12441.45330393471	0
1	8158	12454.624022302579	0
1	8161	12464.249759985591	0
1	8163	12479.066984594345	0
1	8166	12482.578642796996	0
1	8169	12482.888756139898	0
1	8171	12484.577055810207	0
1	8173	12486.402947457041	0
1	8176	12489.855639577882	0
1	8178	12491.867353644488	0
1	8181	12526.972322309323	0
1	8184	12542.703998226408	0
1	8186	12544.398143382096	0
1	8189	12548.119910468073	0
1	8191	12553.841439623846	0
1	8193	12554.531474862365	0
1	8196	12554.983125825951	0
1	8198	12556.096029846195	0
1	8200	12558.155047466194	0
1	8203	12578.795651167604	0
1	8206	12579.396918531819	0
1	8209	12582.622314204969	0
1	8212	12590.287642993128	0
1	8215	12590.908341862469	0
1	8217	12602.91510068942	0
1	8219	12605.079643505511	0
1	8222	12613.590605046228	0
1	8224	12615.642806161598	0
1	8227	12617.076434925726	0
1	8229	12621.514636139234	0
1	8231	12623.072190850842	0
1	8234	12630.735281234655	0
1	8236	12633.434463596244	0
1	8238	12643.549520432771	0
1	8241	12645.611719013126	0
1	8243	12658.301389601879	0
1	8246	12659.265246281472	0
1	8249	12660.000738280515	0
1	8252	12660.435506662918	0
1	8255	12663.887862869759	0
1	8258	12681.280601315869	0
1	8260	12685.66778031239	0
1	8262	12687.206834735716	0
1	8264	12696.618349288986	0
1	8267	12701.104024163833	0
1	8270	12707.945339031243	0
1	8272	12708.043638650415	0
1	8274	12708.161639289005	0
1	8277	12718.054495168653	0
1	8279	12721.143781816587	0
1	8282	12721.165443335206	0
1	8285	12722.126198890416	0
1	8287	12722.66996318305	0
1	8289	12723.382754745633	0
1	8292	12729.171324609188	0
1	8295	12729.198027309109	0
1	8298	12733.328182070336	0
1	8300	12734.355418910755	0
1	8302	12736.807939862286	0
1	8304	12738.495200368504	0
1	8307	12742.431968562108	0
1	8310	12744.813963930366	0
1	8312	12745.188833306665	0
1	8314	12750.028622288006	0
1	8317	12765.75843057799	0
1	8319	12766.035010810939	0
1	8321	12770.395372739233	0
1	8324	12773.371852863787	0
1	8327	12774.69673776066	0
1	8330	12777.592243504693	0
1	8332	12782.795327498451	0
1	8334	12789.845439193377	0
1	8337	12792.572577624475	0
1	8339	12800.935616916942	0
1	8342	12804.801900647625	0
1	8345	12808.266645148951	0
1	8347	12817.13917554692	0
1	8349	12828.374941188604	0
1	8352	12837.155822952802	0
1	8355	12839.465572028478	0
1	8358	12841.916068047925	1
1	8360	12843.286544197119	2
1	8362	12846.600051545298	1
1	8365	12849.736377358723	0
1	8368	12851.058549476087	0
1	8370	12853.062402737781	0
1	8373	12856.386129643518	0
1	8375	12856.423646652728	0
1	8378	12860.598455036317	0
1	8380	12865.772752199796	0
1	8382	12867.143258023039	0
1	8385	12867.373441995435	0
1	8387	12869.909370248369	0
1	8390	12870.942441173462	0
1	8392	12873.259322272275	0
1	8394	12882.664638286234	0
1	8396	12883.422887858643	0
1	8398	12898.775822016838	0
1	8401	12901.298037235744	0
1	8404	12901.790960418278	0
1	8406	12903.140802909384	0
1	8409	12903.302458803092	0
1	8411	12908.287855116445	0
1	8414	12910.62103916923	0
1	8416	12912.368317068754	0
1	8418	12917.680505635736	0
1	8421	12924.223004778862	0
1	8424	12926.426293220385	0
1	8426	12928.417443418269	0
1	8429	12928.468385030519	0
1	8432	12930.645585509603	0
1	8434	12936.741843648018	0
1	8436	12941.290867042025	0
1	8438	12941.645653752519	0
1	8441	12944.582171786407	0
1	8443	12956.48108559821	0
1	8446	12963.830223519094	0
1	8448	12968.223785762812	0
1	8451	12969.393559968572	0
1	8454	12980.072029971006	0
1	8457	12981.894673048205	0
1	8459	12985.73517600285	0
1	8461	12991.570779179956	0
1	8464	12991.583809813964	0
1	8467	12992.272081296522	0
1	8470	12992.705507404956	0
1	8473	12998.538291414815	0
1	8475	13004.248802663482	0
1	8478	13014.474712705364	0
1	8480	13015.004118995624	0
1	8483	13015.529208828986	0
1	8485	13017.722770587001	0
1	8487	13018.616943521791	0
1	8490	13030.097965388764	0
1	8492	13030.156303959932	0
1	8494	13030.588484506725	0
1	8496	13032.608060537313	0
1	8499	13034.82195392546	0
1	8502	13038.465975148431	0
1	8505	13047.722125348527	0
1	8507	13049.837219289765	0
1	8510	13058.695644439082	0
1	8512	13060.504318794239	0
1	8515	13060.963819246707	0
1	8518	13065.456517802814	1
1	8520	13066.190814106055	0
1	8523	13070.221395438839	1
1	8525	13070.276728707706	2
1	8527	13073.496434715531	1
1	8530	13078.889195135188	0
1	8533	13081.176243476838	0
1	8535	13084.394027968115	0
1	8537	13086.602310017224	0
1	8539	13088.763734849498	0
1	8542	13094.327683805146	0
1	8545	13096.794592236138	0
1	8547	13099.402777198754	0
1	8549	13109.020916684248	0
1	8551	13113.353504713184	0
1	8554	13113.414662432082	0
1	8557	13118.476820264005	0
1	8560	13119.356204263805	0
1	8562	13122.780516948695	0
1	8564	13134.973393157443	0
1	8567	13149.198374471849	0
1	8570	13150.55046588157	0
1	8573	13152.571816725219	0
1	8575	13158.733005559854	0
1	8577	13159.368812650074	0
1	8580	13165.480527467399	0
1	8583	13165.747119617595	0
1	8585	13167.907919989831	0
1	8588	13170.299299365872	1
1	8590	13173.83913428976	2
1	8592	13174.433216324759	1
1	8595	13186.825903316621	0
1	8598	13188.498043526196	1
1	8600	13189.691552589528	0
1	8603	13190.427702794981	0
1	8605	13209.504534927744	0
1	8608	13211.43560191386	0
1	8610	13213.165377950154	0
1	8612	13214.784973124347	0
1	8615	13224.470549528572	0
1	8617	13231.888405073933	0
1	8620	13232.22094459214	0
1	8623	13234.047901987349	0
1	8625	13242.175935471837	0
1	8627	13249.676345821029	0
1	8629	13253.217335419351	0
1	8631	13257.511082987407	0
1	8634	13262.390398852364	0
1	8637	13263.536651341117	0
1	8639	13264.390358441121	0
1	8642	13277.165457268985	0
1	8645	13278.473679964946	0
1	8648	13280.631443578403	1
1	8650	13280.684528139347	0
1	8653	13281.683466017652	1
1	8655	13283.415289122023	0
1	8658	13287.213960967926	1
1	8660	13292.414171303416	2
1	8662	13309.606232865888	1
1	8665	13313.206413032695	2
1	8667	13315.58743418353	3
1	8669	13316.972553535493	4
1	8671	13320.584667843747	3
1	8674	13322.261424502284	2
1	8677	13323.903485928944	1
1	8680	13324.014796655968	0
1	8683	13335.093513929225	0
1	8685	13340.388448824933	0
1	8688	13341.350794425239	0
1	8690	13342.176281172953	0
1	8692	13342.286218486119	0
1	8694	13344.581627507715	0
1	8697	13349.983181315384	0
1	8700	13355.183480586133	0
1	8702	13360.852533259645	0
1	8704	13364.814564152498	0
1	8707	13367.647492430116	0
1	8709	13375.023793605423	0
1	8712	13377.283939782972	0
1	8714	13382.598523634367	0
1	8716	13382.756910375732	0
1	8719	13403.029439896045	0
1	8721	13410.852519902728	0
1	8723	13414.13034613027	0
1	8725	13427.407161199815	0
1	8728	13430.407468820151	0
1	8731	13434.979689082251	0
1	8734	13437.36845841307	0
1	8736	13440.437645109369	0
1	8739	13440.611229390626	0
1	8742	13440.839568732505	0
1	8744	13443.143364705879	0
1	8746	13444.370109702046	0
1	8749	13444.491843858104	0
1	8752	13445.130161367822	0
1	8754	13446.058114726199	0
1	8756	13452.162532730406	0
1	8758	13453.048256318484	0
1	8760	13458.290092493042	0
1	8762	13458.947047485659	0
1	8765	13464.051720499646	0
1	8768	13474.145609266298	0
1	8771	13482.27537389239	0
1	8774	13485.900690123316	0
1	8776	13493.159953747453	0
1	8778	13495.011616293699	0
1	8781	13495.903964532087	0
1	8784	13497.29775207523	0
1	8786	13501.727322244512	0
1	8789	13503.71150178592	0
1	8792	13508.479672112717	0
1	8794	13516.027344093461	0
1	8796	13517.581203408112	0
1	8798	13529.681415368492	0
1	8801	13536.550054760948	0
1	8803	13540.303731564422	0
1	8806	13541.066759113795	0
1	8808	13548.916854290058	0
1	8811	13554.018888475231	0
1	8813	13558.906603764459	0
1	8816	13563.64763717792	0
1	8818	13574.349088917298	0
1	8821	13582.470486001219	0
1	8823	13585.442256606724	0
1	8825	13595.535592337327	0
1	8827	13600.177962111454	0
1	8830	13603.653101217733	0
1	8833	13614.167331842771	0
1	8836	13618.292745328366	0
1	8839	13632.955718048795	0
1	8842	13652.688389502409	0
1	8845	13659.904667489332	0
1	8848	13671.729991295045	1
1	8850	13672.891312472688	0
1	8853	13680.895430263826	1
1	8855	13683.337970316348	0
1	8858	13690.084037369457	1
1	8860	13691.505059563921	0
1	8863	13700.009551680496	1
1	8865	13702.208061962993	0
1	8868	13707.010852223899	0
1	8870	13709.391595501816	0
1	8872	13711.068761159414	0
1	8875	13712.613640876872	0
1	8878	13716.517664976558	1
1	8880	13720.366365747693	2
1	8882	13720.956380422587	1
1	8885	13723.264397039716	0
1	8888	13723.473407528927	1
1	8890	13727.543707573887	2
1	8892	13730.318056653982	1
1	8895	13730.538171280421	2
1	8897	13734.455151037561	3
1	8899	13750.839502582705	2
1	8902	13751.668186311212	1
1	8905	13758.051732664352	2
1	8907	13759.711076074224	3
1	8909	13765.437451745204	2
1	8912	13771.120559467248	1
1	8915	13777.300398622759	2
1	8917	13780.212529223723	1
1	8920	13781.705037731208	2
1	8922	13783.702777979731	1
1	8925	13783.718931683626	0
1	8928	13790.276325946398	1
1	8930	13796.285261646857	0
1	8933	13800.177285582894	0
1	8935	13800.990952724683	0
1	8938	13802.403067282733	0
1	8940	13805.998961175499	0
1	8943	13811.80414221727	0
1	8945	13826.523818334251	0
1	8947	13830.131792884397	0
1	8949	13834.034431376599	0
1	8951	13834.871050874415	0
1	8953	13841.636839310978	0
1	8955	13842.937008867224	0
1	8958	13843.761142912315	0
1	8961	13844.331704483564	0
1	8964	13846.007084330162	0
1	8967	13851.339062583787	0
1	8969	13851.900437272631	0
1	8971	13852.394282023121	0
1	8973	13859.047335403882	0
1	8975	13861.315564879902	0
1	8978	13865.486104920651	0
1	8981	13869.486812621565	0
1	8983	13877.773729914746	0
1	8986	13894.370968733852	0
1	8988	13898.43255598229	0
1	8991	13903.653766223776	0
1	8994	13905.092580621644	0
1	8997	13907.917913170193	0
1	9000	13909.386228859605	0
1	9002	13910.488271292475	0
1	9005	13910.945124028285	0
1	9007	13915.770513757697	0
1	9010	13917.191693750301	0
1	9012	13919.208102940041	0
1	9015	13919.708808452087	0
1	9017	13923.200479083585	0
1	9020	13924.206351831237	0
1	9022	13935.946440301651	0
1	9025	13942.170143580204	0
1	9027	13944.265419575387	0
1	9029	13947.085719576724	0
1	9031	13954.342716651162	0
1	9034	13969.784812746521	0
1	9036	13980.436099349117	0
1	9038	13981.705378766477	0
1	9041	13984.333550456302	0
1	9044	13986.009149050328	0
1	9047	13986.722099720458	0
1	9049	13986.80432186224	0
1	9052	13988.30849360346	0
1	9054	13991.395754613316	0
1	9057	13997.013412404291	0
1	9060	13997.54905345786	0
1	9062	13999.076876419758	0
1	9064	14007.382331297212	0
1	9067	14008.795886915991	0
1	9069	14008.948181110206	0
1	9072	14011.97805999499	0
1	9075	14014.083788356651	0
1	9078	14015.67960912335	1
1	9080	14025.251627747296	2
1	9082	14027.887017722044	1
1	9085	14037.614089982704	0
1	9088	14043.297317129457	1
1	9090	14049.139084449495	0
1	9093	14051.887113732016	0
1	9095	14051.984030683236	0
1	9097	14055.060542365854	0
1	9099	14060.613185659181	0
1	9102	14061.306078269592	0
1	9105	14065.35731372799	0
1	9107	14066.16910997509	0
1	9109	14075.849176889213	0
1	9111	14079.4451740645	0
1	9114	14082.407622092766	0
1	9116	14092.330993435441	0
1	9118	14102.466335454752	0
1	9121	14115.619338618931	0
1	9124	14126.543364587384	0
1	9127	14132.333369246984	0
1	9129	14138.916475442389	0
1	9132	14139.666488172948	0
1	9134	14140.853922353717	0
1	9137	14154.20475728696	0
1	9140	14155.649271304806	0
1	9143	14158.788423129404	1
1	9145	14161.85844412685	0
1	9148	14165.536328418138	1
1	9150	14168.423593675537	0
1	9153	14170.297662569879	0
1	9155	14172.754193784252	0
1	9157	14173.294619092241	0
1	9160	14177.129444638971	0
1	9162	14177.192054028619	0
1	9164	14186.86886167749	0
1	9166	14186.968765328406	0
1	9169	14186.972268138582	0
1	9171	14188.571911664532	0
1	9174	14191.329288371078	0
1	9176	14193.085122164931	0
1	9179	14195.00981894572	0
1	9181	14203.321517835901	0
1	9183	14208.404464715593	0
1	9186	14219.119846761831	0
1	9188	14219.841702219804	0
1	9190	14219.951536422207	0
1	9193	14245.28127571168	0
1	9196	14255.696411073607	0
1	9198	14255.759103238524	0
1	9201	14258.08827011074	0
1	9204	14262.813624894604	0
1	9207	14263.389320074145	0
1	9210	14270.393664164517	0
1	9212	14273.352752025396	0
1	9215	14283.811199628333	0
1	9218	14284.173795445406	0
1	9220	14288.578181092524	0
1	9222	14290.622619485618	0
1	9224	14291.967813342097	0
1	9227	14293.975685716698	0
1	9229	14308.825800482343	0
1	9231	14311.884451355033	0
1	9234	14313.969348902291	0
1	9237	14315.344904414454	0
1	9239	14323.57677212336	0
1	9241	14328.804809566612	0
1	9244	14352.745586595458	0
1	9246	14354.417220783058	0
1	9249	14354.522458872449	0
1	9252	14359.596095587471	0
1	9254	14361.754481308044	0
1	9257	14363.055582144253	0
1	9259	14366.263808517262	0
1	9262	14371.284775067307	0
1	9265	14375.31032814989	0
1	9268	14381.025827275859	0
1	9270	14393.509755458025	0
1	9272	14396.181223566952	0
1	9275	14399.366649647444	0

