version 2
run General-7-20191211-23:49:40-6374
attr configname General
attr datetime 20191211-23:49:40
attr experiment General
attr inifile omnetpp.ini
attr iterationvars ""
attr iterationvarsf ""
attr measurement ""
attr network Carrefour
attr processid 6374
attr repetition 7
attr replication #7
attr resultdir results
attr runnumber 7
attr seedset 7
param **.tillsNumber 7
param **.delta 0s
param **.policy 1
param **.capacity 0.3
param **.meanInterArrivalTime 8s
param **.meanItemsInACart 12
param **.interArrivalDistribution 0
param **.itemsInCartDistribution 0

vector 0 Carrefour.decider stats_numCustomers:vector ETV
attr "" ""
attr source numCustomers
vector 1 Carrefour.decider stats_numCustomersQueue:vector ETV
attr "" ""
attr source numCustomersQueue
0	719	1203.253946287201	3
0	721	1204.410787507636	4
0	724	1207.647977912443	3
0	726	1211.124121468685	4
0	729	1211.607434600575	3
0	731	1217.007283076957	2
0	733	1218.049874935275	3
0	736	1226.242490365144	4
0	739	1234.384825070368	5
0	742	1236.26535552629	6
0	745	1238.19200499111	7
0	748	1242.369959192235	6
0	750	1249.951165134435	7
0	753	1254.275640361916	8
0	755	1256.417719095597	9
0	757	1259.877418353748	8
0	760	1260.490750807812	7
0	763	1261.448801309231	8
0	765	1271.581818246771	9
0	767	1272.275604546269	10
0	769	1276.189231117107	11
0	771	1276.751681541051	10
0	774	1277.234557011001	9
0	777	1277.711415593188	8
0	780	1282.946070755031	9
0	782	1283.429090371934	10
0	784	1285.504621405774	11
0	786	1286.07627073053	12
0	788	1286.367339901625	13
0	790	1292.21408647418	12
0	793	1299.701544393007	13
0	795	1313.889573315861	12
0	798	1324.507543258146	11
0	801	1325.492142344976	10
0	804	1326.255355496081	9
0	807	1326.413926157184	10
0	809	1329.407625981901	11
0	811	1329.967473605292	10
0	814	1330.028377863883	11
0	816	1331.91235447381	10
0	819	1332.143234614057	9
0	822	1334.109476053089	10
0	824	1340.731685316085	9
0	827	1344.598384676933	10
0	829	1345.911483704068	9
0	832	1347.184792614812	10
0	834	1352.212316476819	9
0	837	1352.77215988351	10
0	839	1356.491730713667	11
0	841	1357.269201530689	12
0	843	1367.543950341764	11
0	846	1371.595143449707	12
0	848	1374.407322901591	11
0	851	1375.60541954969	10
0	854	1377.532991644193	11
0	856	1378.665548279103	10
0	859	1390.427332368683	9
0	862	1394.244822030241	8
0	865	1398.713602236198	9
0	867	1403.269973232884	10
0	869	1405.534903145758	11
0	871	1405.987969092166	10
0	874	1406.624849316533	9
0	877	1411.887778334694	10
0	879	1412.005419660821	11
0	881	1416.110218080974	10
0	884	1419.415987546163	9
0	887	1423.244815805957	8
0	890	1425.227215487275	7
0	893	1425.29305992629	6
0	895	1428.410118919666	5
0	897	1433.007179257981	4
0	899	1433.873220946956	5
0	902	1441.633053963022	4
0	904	1444.416887313049	3
0	906	1451.979040976311	2
0	908	1457.760548722864	3
0	911	1460.737991902081	2
0	913	1475.828069687073	1
0	915	1500.227971677308	2
0	918	1507.554481860376	1
0	920	1519.367305095904	2
0	923	1528.052512096037	3
0	926	1528.686312658275	4
0	929	1532.183572313203	5
0	932	1536.830783001444	4
0	934	1538.293397326121	5
0	937	1541.190509487071	4
0	939	1542.919911716108	5
0	942	1546.80747264175	4
0	944	1551.519492010951	5
0	947	1556.325683288078	4
0	949	1563.471094259998	5
0	952	1568.631747376523	4
0	954	1572.40272559389	3
0	956	1593.354952701492	4
0	959	1601.280709984829	5
0	962	1602.316709150114	4
0	964	1606.367777215276	5
0	967	1607.192822749301	6
0	970	1608.647326053261	5
0	972	1616.052137595119	4
0	974	1620.100202708049	5
0	977	1628.23819223586	4
0	979	1628.53511480787	5
0	982	1635.464466444399	6
0	985	1636.454689096365	5
0	987	1653.5221558551	4
0	989	1655.69415685924	3
0	991	1663.156125000212	4
0	994	1674.978374932565	3
0	996	1686.410221161729	4
0	999	1687.014935329535	3
0	1001	1688.573695531767	4
0	1004	1692.097219095983	3
0	1006	1697.306679280201	4
0	1009	1701.296851180875	5
0	1012	1701.763706666996	6
0	1015	1702.453968941803	7
0	1018	1705.283041800251	8
0	1020	1712.110392304826	7
0	1023	1719.160819885285	8
0	1025	1722.369268325974	9
0	1027	1725.103517395978	10
0	1029	1726.492092167135	11
0	1031	1727.582363892072	10
0	1034	1727.793579868076	9
0	1037	1727.925087151862	10
0	1039	1728.066507897873	11
0	1041	1729.491248422404	12
0	1043	1739.9857821541	11
0	1046	1741.059752837698	10
0	1049	1742.717742942588	11
0	1051	1745.323181795498	12
0	1053	1748.294408565623	13
0	1055	1748.35110919723	14
0	1057	1748.389573231414	13
0	1060	1749.964036481267	12
0	1063	1760.226955737254	13
0	1065	1766.667867117251	12
0	1068	1771.277588688368	13
0	1070	1772.529033501074	14
0	1072	1786.519747557289	13
0	1075	1787.912086509265	14
0	1077	1789.30119550223	13
0	1080	1789.75751612141	14
0	1082	1792.519129014145	13
0	1085	1795.463878260041	12
0	1088	1799.050504785078	11
0	1091	1810.554932769878	12
0	1093	1811.847385053457	11
0	1096	1813.261858905136	12
0	1098	1816.139809376006	13
0	1100	1823.265849121877	14
0	1102	1828.407464586638	15
0	1104	1830.666711095185	14
0	1107	1831.030132494094	13
0	1110	1837.893855023302	12
0	1113	1840.321903531379	11
0	1116	1841.511282919897	10
0	1119	1845.747516727233	11
0	1121	1846.689420440764	10
0	1124	1851.17901380627	9
0	1127	1853.648949734969	8
0	1130	1853.924190730231	7
0	1133	1854.050544844522	6
0	1135	1855.989475506671	5
0	1137	1856.533818485053	6
0	1140	1856.577547419681	5
0	1142	1857.383130639859	6
0	1145	1865.796285979486	7
0	1148	1867.724170369419	6
0	1150	1868.597034806041	5
0	1152	1877.232391765139	4
0	1154	1878.437994419244	5
0	1157	1880.321213245678	4
0	1159	1880.929615728778	5
0	1162	1889.770640166662	6
0	1165	1893.715459428369	7
0	1168	1895.065639907844	6
0	1170	1897.519224559599	5
0	1172	1897.759114352879	4
0	1174	1902.470904290951	3
0	1176	1910.859194167212	4
0	1179	1914.956228643512	3
0	1181	1920.287871439915	2
0	1183	1927.463182410594	1
0	1185	1929.710532019678	2
0	1188	1930.301858600686	3
0	1191	1940.801517373038	4
0	1194	1941.946427005027	5
0	1197	1942.580904008228	6
0	1200	1943.096218109116	7
0	1203	1944.94439688557	8
0	1205	1948.490238680771	7
0	1208	1956.326397832442	8
0	1210	1962.465444155664	7
0	1213	1973.863223115065	8
0	1215	1978.695421640422	9
0	1217	1978.76067583586	8
0	1220	1979.331523726698	7
0	1223	1979.757175936382	6
0	1225	1982.953247254253	7
0	1228	1984.517177939747	8
0	1230	1986.347563987407	9
0	1232	1991.564674046053	8
0	1235	1991.696111978483	7
0	1238	1993.040621172507	8
0	1240	1996.449205537845	9
0	1242	2005.526450558897	8
0	1245	2009.572837829152	7
0	1248	2014.917308831705	8
0	1250	2017.150921483341	7
0	1253	2018.496207957132	6
0	1255	2019.16824234915	7
0	1258	2019.721017916093	6
0	1260	2026.041070753953	5
0	1262	2030.680018605326	6
0	1265	2036.211839363373	5
0	1267	2037.521508267371	4
0	1269	2039.918901265647	3
0	1271	2041.941290585116	4
0	1274	2051.259104422191	5
0	1277	2052.401610478186	6
0	1280	2052.477920315747	7
0	1283	2060.962525936057	6
0	1285	2062.263340004238	5
0	1287	2067.916229227133	6
0	1290	2072.19157110091	7
0	1293	2076.013382767893	8
0	1295	2081.161564878912	7
0	1298	2081.239039266745	8
0	1300	2082.204239223196	7
0	1303	2082.449533402701	6
0	1305	2086.422563974455	7
0	1308	2088.525739213296	8
0	1310	2089.64124918456	9
0	1312	2090.672306867811	8
0	1315	2092.566079318118	7
0	1318	2095.375156593056	8
0	1320	2097.916959710748	9
0	1322	2102.500264824899	10
0	1324	2112.596088688896	9
0	1327	2117.516535042847	8
0	1330	2125.826466302822	9
0	1332	2128.380308462828	8
0	1335	2133.628462545264	9
0	1337	2135.539726191898	8
0	1340	2137.671802528926	7
0	1343	2138.773504157694	8
0	1345	2139.230212856313	9
0	1347	2139.55235184765	8
0	1350	2140.553235742673	9
0	1352	2142.983607218956	10
0	1354	2143.352668827218	9
0	1357	2144.17942885745	8
0	1360	2146.380472525747	7
0	1363	2149.409929602088	8
0	1365	2156.405107868381	9
0	1367	2156.65643524024	8
0	1370	2164.159881083172	9
0	1372	2164.546930004423	8
0	1375	2166.540653249043	7
0	1378	2169.297582060715	6
0	1380	2170.753245237494	7
0	1383	2173.722991568969	6
0	1385	2185.878457646964	7
0	1388	2187.700026036241	6
0	1390	2193.765021252189	5
0	1392	2196.622744397356	4
0	1394	2206.05478668093	3
0	1396	2207.5275672419	4
0	1399	2207.585653747431	3
0	1401	2212.004457093967	4
0	1404	2212.027987890283	3
0	1406	2212.431829126174	2
0	1408	2231.760375462951	3
0	1411	2238.712409715544	2
0	1413	2257.137640088326	3
0	1416	2272.986252773505	4
0	1419	2274.728420842935	5
0	1422	2277.632332416584	4
0	1424	2287.638169117016	3
0	1426	2291.879473871771	4
0	1429	2297.694583195781	5
0	1432	2298.726827668439	4
0	1434	2301.119052879749	5
0	1437	2305.226942285393	6
0	1440	2306.536246163507	5
0	1442	2307.845222013781	6
0	1445	2310.460113942725	7
0	1448	2313.617194693443	8
0	1450	2314.230921090611	7
0	1453	2316.962122567858	6
0	1455	2317.451728196251	5
0	1457	2321.029731368195	6
0	1460	2327.71472329499	5
0	1462	2328.266409380406	6
0	1465	2328.930614175879	7
0	1468	2340.911087903152	6
0	1470	2341.259818571532	7
0	1473	2342.528773986012	6
0	1475	2346.727736847996	7
0	1478	2348.63918684385	8
0	1480	2348.645944338006	7
0	1483	2353.779914258058	8
0	1485	2366.79308962929	9
0	1487	2371.06058973717	8
0	1490	2371.244762206657	7
0	1493	2374.700667707546	6
0	1495	2375.830513740073	5
0	1497	2377.441645407397	6
0	1500	2377.612723916346	7
0	1503	2380.342026018619	6
0	1505	2380.391685793742	7
0	1508	2382.790619919136	8
0	1510	2384.748508641444	9
0	1512	2388.498094343263	10
0	1514	2390.339244475278	11
0	1516	2391.411531070083	12
0	1518	2393.802628710448	11
0	1521	2397.889707503859	10
0	1524	2405.929809624715	9
0	1527	2411.111001387924	8
0	1530	2422.931176866119	7
0	1533	2423.573012183782	8
0	1535	2433.522324499467	7
0	1538	2435.436755403878	8
0	1540	2440.262091423007	9
0	1542	2440.607926817513	10
0	1544	2450.614603447733	9
0	1547	2451.100629456762	8
0	1550	2460.089701742715	7
0	1553	2464.272604040387	6
0	1555	2465.678263053577	5
0	1557	2466.100157959419	6
0	1560	2467.115595159728	5
0	1562	2470.733714009495	6
0	1565	2476.568739467867	5
0	1567	2487.515565421337	4
0	1569	2488.848830085109	5
0	1572	2494.271710378806	6
0	1575	2495.743541902229	5
0	1577	2498.923226515795	6
0	1580	2500.385927437267	5
0	1582	2509.527644856743	6
0	1585	2513.748191392856	7
0	1588	2526.030233794504	8
0	1590	2530.362548792223	7
0	1593	2534.683429671892	8
0	1595	2539.612304061564	9
0	1597	2544.76911950322	8
0	1600	2544.884544363027	7
0	1603	2561.354847186714	8
0	1605	2562.851906760077	7
0	1608	2563.427504702724	8
0	1610	2576.48657709483	9
0	1612	2579.896876943175	8
0	1615	2587.476373128096	7
0	1618	2594.220552963022	6
0	1620	2594.222926074782	7
0	1623	2597.516017213397	6
0	1625	2599.369790875514	7
0	1628	2600.160863809916	8
0	1630	2601.141348168168	7
0	1633	2602.169314359794	6
0	1635	2605.609721213982	7
0	1638	2609.311422156395	6
0	1640	2612.61920101483	5
0	1642	2613.985283850434	6
0	1645	2616.34449518701	7
0	1648	2619.3000719546	8
0	1650	2626.781702768922	9
0	1652	2636.113517444185	10
0	1654	2636.636391048205	11
0	1656	2637.907873248885	10
0	1659	2638.750449822804	11
0	1661	2645.529670503606	12
0	1663	2651.787127008807	13
0	1665	2652.554627384364	14
0	1667	2657.911387047598	15
0	1669	2663.792047817134	16
0	1671	2665.30069153216	15
0	1674	2668.798521098314	14
0	1677	2676.108166861027	13
0	1680	2676.262915530976	12
0	1683	2680.316341240503	13
0	1685	2684.004728194513	12
0	1688	2686.070415288202	11
0	1691	2687.599852453408	12
0	1693	2688.735007359449	13
0	1695	2692.491337344046	12
0	1698	2692.944224518369	11
0	1701	2699.349319210191	10
0	1704	2699.992115285842	9
0	1707	2700.58482049291	10
0	1709	2701.642391702041	11
0	1711	2702.748629844535	10
0	1714	2704.178767750952	9
0	1717	2704.279644048914	8
0	1720	2707.029965164652	7
0	1723	2707.599802578216	8
0	1725	2711.226441666154	9
0	1727	2714.821934346908	8
0	1730	2715.63088476053	7
0	1733	2717.907483517609	6
0	1735	2718.214258295451	5
0	1737	2718.325242051254	4
0	1739	2719.383559756483	5
0	1742	2725.406468262179	6
0	1745	2731.189682550468	5
0	1747	2731.625081814119	6
0	1750	2731.782545396602	5
0	1752	2737.885946865428	6
0	1755	2740.355367096696	7
0	1758	2740.802219194419	8
0	1760	2743.782081475523	9
0	1762	2748.251872888709	8
0	1765	2750.200033101812	7
0	1768	2751.474162158864	8
0	1770	2756.156704205343	9
0	1772	2757.335304685198	10
0	1774	2757.925618406393	9
0	1777	2761.119008331458	10
0	1779	2765.635467149709	11
0	1781	2772.294349605263	10
0	1784	2772.337491972473	11
0	1786	2784.635274713282	10
0	1789	2785.445937856349	9
0	1792	2806.047173310868	8
0	1795	2807.301563169539	7
0	1798	2808.252758906493	6
0	1800	2813.286454014624	7
0	1803	2816.68714286076	6
0	1805	2817.546596657312	7
0	1808	2820.460132072841	8
0	1810	2829.674383977151	7
0	1813	2843.012700798147	6
0	1815	2844.98970090153	7
0	1818	2847.745999410044	8
0	1820	2849.037890548031	7
0	1823	2855.010179745867	8
0	1825	2857.885236546935	7
0	1828	2868.655684839248	8
0	1830	2870.366673672105	7
0	1833	2873.162394642883	6
0	1835	2873.796625855866	7
0	1838	2874.052902797993	6
0	1840	2878.239850628631	7
0	1843	2884.860772564012	6
0	1845	2889.895088394215	5
0	1847	2894.445295620385	4
0	1849	2902.363361652181	3
0	1851	2919.425040225114	2
0	1853	2921.468449542193	3
0	1856	2924.168170179422	4
0	1859	2926.211373973192	5
0	1862	2934.039665723949	6
0	1865	2938.885473295954	7
0	1868	2940.308753789329	8
0	1870	2944.863485100294	7
0	1873	2944.86483771808	8
0	1875	2951.061991503932	9
0	1877	2951.320817264848	8
0	1880	2951.774804781411	7
0	1883	2957.029365588374	6
0	1885	2957.494704182851	5
0	1887	2962.497531055169	6
0	1890	2967.435909062658	5
0	1892	2967.474904369581	4
0	1894	2978.357978635369	5
0	1897	2980.409955042813	4
0	1899	2985.13837042237	5
0	1902	2985.708745415637	4
0	1904	2992.155031874249	3
0	1906	2992.593562153249	2
0	1908	2995.296309507902	3
0	1911	3004.615766987825	4
0	1914	3009.301191641026	5
0	1917	3013.549097693225	6
0	1920	3015.579558624526	5
0	1922	3016.370208281987	4
0	1924	3016.428657639241	3
0	1926	3031.850920401916	2
0	1928	3035.783579392878	1
0	1930	3036.660213826638	2
0	1933	3038.621517774992	3
0	1936	3042.977451293113	2
0	1938	3053.541481287622	3
0	1941	3054.563595291567	2
0	1943	3054.812197457919	3
0	1946	3064.386807360293	2
0	1948	3085.706965208815	3
0	1951	3088.05876519802	4
0	1954	3093.152531495234	3
0	1956	3095.61781616898	4
0	1959	3099.650152287381	5
0	1962	3102.522813304521	4
0	1964	3104.009511537002	5
0	1967	3104.112126077505	4
0	1969	3104.179123733032	3
0	1971	3104.576703355045	4
0	1974	3108.152663971119	5
0	1977	3110.517185343837	4
0	1979	3112.0146448695	3
0	1981	3121.02951312815	4
0	1984	3123.119551353099	3
0	1986	3124.496303383717	4
0	1989	3125.065936608445	5
0	1992	3133.016492275963	4
0	1994	3140.96712603039	3
0	1996	3155.536807655826	4
0	1999	3155.840878201522	5
0	2002	3157.903026350153	6
0	2005	3159.681120688155	7
0	2008	3166.850972709331	8
0	2010	3168.862084923266	9
0	2012	3169.991751434237	8
0	2015	3170.215907749625	9
0	2017	3172.675242122465	10
0	2019	3178.494664263249	11
0	2021	3178.611590561294	12
0	2023	3182.485184769064	11
0	2026	3183.449946912659	12
0	2028	3186.337652177841	11
0	2031	3187.342179346819	12
0	2033	3189.035954577099	11
0	2036	3191.239031477363	10
0	2039	3191.533372278373	9
0	2042	3191.979906761806	10
0	2044	3201.163553227887	11
0	2046	3207.392463834602	10
0	2049	3213.33670105765	9
0	2052	3214.184609150394	8
0	2055	3216.582928825853	9
0	2057	3217.41115334654	10
0	2059	3220.908036377309	11
0	2061	3223.5733771015	10
0	2064	3226.629936291582	9
0	2067	3230.391707707936	10
0	2069	3236.2622903979	11
0	2071	3237.03323341097	12
0	2073	3239.162519256216	11
0	2076	3242.027088324839	10
0	2079	3249.035498396176	9
0	2082	3258.547638840572	8
0	2085	3261.836703761562	7
0	2088	3264.085100874742	8
0	2090	3268.795458358891	7
0	2093	3281.037105784571	8
0	2095	3288.581530016617	9
0	2097	3293.335708617201	10
0	2099	3295.156415228603	9
0	2102	3295.577769761988	8
0	2105	3297.961878566725	7
0	2108	3300.265445511137	6
0	2110	3300.708711191747	5
0	2112	3301.394754253993	6
0	2115	3308.041353065447	7
0	2118	3310.794298960487	6
0	2120	3314.474032677209	7
0	2123	3318.85558143937	8
0	2125	3322.866894415352	7
0	2128	3324.661687205836	8
0	2130	3326.636689080217	7
0	2133	3331.727633537104	6
0	2135	3337.660766956648	7
0	2138	3344.923081638826	6
0	2140	3345.214655756583	5
0	2142	3349.980214909421	4
0	2144	3352.329204205273	5
0	2147	3355.611779156363	6
0	2150	3356.499737367038	7
0	2153	3359.65643144755	8
0	2155	3359.718954147962	9
0	2157	3360.695764103512	10
0	2159	3365.705001000071	9
0	2162	3370.044099199514	10
0	2164	3376.621250004019	9
0	2167	3383.663397345694	10
0	2169	3383.828125758405	11
0	2171	3384.67500466404	12
0	2173	3393.87063868657	11
0	2176	3396.264909665269	10
0	2179	3409.007801870008	9
0	2182	3410.481396997431	10
0	2184	3411.286208461693	11
0	2186	3415.852855086346	12
0	2188	3425.405338409212	13
0	2190	3426.785791966603	14
0	2192	3431.225801812782	13
0	2195	3440.412138481026	12
0	2198	3444.839154145356	11
0	2201	3445.517180726361	10
0	2204	3449.093620010486	11
0	2206	3450.019111597145	10
0	2209	3452.308991658921	9
0	2212	3457.126055133009	8
0	2215	3458.184901607437	7
0	2218	3458.390393158258	6
0	2220	3459.083503221204	7
0	2223	3459.914012043242	8
0	2225	3471.534884707482	7
0	2228	3471.600006350779	6
0	2230	3473.983024345706	5
0	2232	3475.96747438012	4
0	2234	3482.757332028331	5
0	2237	3485.536528076492	6
0	2240	3489.210721819026	5
0	2242	3493.847463412275	6
0	2245	3494.65731250905	5
0	2247	3494.963256098092	6
0	2250	3504.531130160265	5
0	2252	3508.177334231547	6
0	2255	3508.464621891257	5
0	2257	3512.232988270614	6
0	2260	3522.316832884414	5
0	2262	3523.811847096173	4
0	2264	3525.839597393018	5
0	2267	3532.555325929365	6
0	2270	3533.573802144608	5
0	2272	3533.590648057534	6
0	2275	3537.011012633984	5
0	2277	3538.084543203057	4
0	2279	3543.804383013085	3
0	2281	3544.000951493207	2
0	2283	3547.758282871185	3
0	2286	3548.302453755872	4
0	2289	3552.777455226684	5
0	2292	3553.49321427274	4
0	2294	3553.724432201051	5
0	2297	3555.576395996027	4
0	2299	3556.236961113245	3
0	2301	3558.891788181262	2
0	2303	3559.963938429758	1
0	2305	3565.715991311814	2
0	2308	3572.363629756783	3
0	2311	3574.750515992295	2
0	2313	3576.414597512688	3
0	2316	3576.754981656207	2
0	2318	3577.432065004546	1
0	2320	3607.610111514319	2
0	2323	3608.252702675028	1
0	2325	3612.679873525091	2
0	2328	3613.631903424989	3
0	2331	3618.449806832322	4
0	2334	3619.224756226228	5
0	2337	3621.360190388876	6
0	2340	3622.645295383334	7
0	2343	3625.717085240449	8
0	2345	3630.1052028413	9
0	2347	3640.282908760664	8
0	2350	3653.619016182028	7
0	2353	3658.723640307734	8
0	2355	3661.26346359722	9
0	2357	3661.987326886058	10
0	2359	3662.300915309365	11
0	2361	3665.694372463964	10
0	2364	3670.300175518215	11
0	2366	3683.684535477969	10
0	2369	3685.591912438106	11
0	2371	3685.596351408596	10
0	2374	3686.822200498427	11
0	2376	3688.702255596227	12
0	2378	3694.410444802003	13
0	2380	3697.453189893014	12
0	2383	3698.958355448255	13
0	2385	3700.670294125735	14
0	2387	3704.682246132774	13
0	2390	3705.114139259267	12
0	2393	3705.235390251651	13
0	2395	3705.439220706696	14
0	2397	3712.339646838615	13
0	2400	3712.726458016447	14
0	2402	3718.470263395487	15
0	2404	3724.950749513318	14
0	2407	3730.431909032772	13
0	2410	3733.297242051255	14
0	2412	3737.510834994616	13
0	2415	3737.999039057246	14
0	2417	3738.28299834133	15
0	2419	3747.196352137195	16
0	2421	3748.187366085844	17
0	2423	3749.781962768498	16
0	2426	3750.451961300171	17
0	2428	3751.043976200134	18
0	2430	3751.730158832789	17
0	2433	3752.306269070748	16
0	2436	3761.681598974991	15
0	2439	3763.118299858342	14
0	2442	3767.645836551581	13
0	2445	3769.575694240052	12
0	2448	3778.092408064541	13
0	2450	3781.918131612428	14
0	2452	3785.109443663075	13
0	2455	3786.405294773424	14
0	2457	3790.144018406811	15
0	2459	3791.799416331052	14
0	2462	3798.604637078271	15
0	2464	3799.881684825597	16
0	2466	3806.219932843279	15
0	2469	3809.261649629699	16
0	2471	3810.996826871502	15
0	2474	3813.375519169211	14
0	2477	3814.084400503897	13
0	2480	3814.372096851143	12
0	2483	3829.936456426594	11
0	2486	3831.420839064652	12
0	2488	3840.363077496465	11
0	2491	3841.367858834439	10
0	2494	3855.235680500626	11
0	2496	3862.932030560849	10
0	2499	3865.675670874577	11
0	2501	3869.801838206483	10
0	2504	3874.554371453337	11
0	2506	3882.358149568425	10
0	2509	3885.561360101804	9
0	2512	3885.778694595674	10
0	2514	3887.394979885726	11
0	2516	3888.651993079285	12
0	2518	3894.430332958665	11
0	2521	3897.056038219618	12
0	2523	3897.440543490592	11
0	2526	3897.87810470432	10
0	2529	3900.078665179488	9
0	2532	3907.255660637444	8
0	2535	3911.476832128905	7
0	2538	3921.492848559073	6
0	2540	3922.520970843486	5
0	2542	3923.178514314922	6
0	2545	3936.578750476665	7
0	2548	3938.1214025852	6
0	2550	3938.679085867423	5
0	2552	3947.876038817366	4
0	2554	3950.042932219206	3
0	2556	3950.986187378533	4
0	2559	3950.998965246963	3
0	2561	3965.67816554423	4
0	2564	3966.798805149763	3
0	2566	3970.691849917806	4
0	2569	3972.671818269401	3
0	2571	3975.690426531269	4
0	2574	3978.213516913359	3
0	2576	3979.432968269706	2
0	2578	3980.504282063405	3
0	2581	3981.671464542852	2
0	2583	3989.358190768521	3
0	2586	3992.98660751037	2
0	2588	3995.063178756945	3
0	2591	4012.781751073813	2
0	2593	4015.380734078198	3
0	2596	4015.663777367063	2
0	2598	4017.451824685824	3
0	2601	4019.94417067782	2
0	2603	4022.91778995315	3
0	2606	4030.662318407594	4
0	2609	4030.690615269981	3
0	2611	4035.597166408511	4
0	2614	4043.768888504218	5
0	2617	4044.903980720769	4
0	2619	4049.12577614741	3
0	2621	4051.428807843076	2
0	2623	4067.558676725551	1
0	2625	4069.360118425767	2
0	2628	4071.735802018795	1
0	2630	4077.0769306009	2
0	2633	4099.531103273886	1
0	2635	4102.080045981038	0
0	2637	4112.232885583322	1
0	2640	4140.341904759641	2
0	2643	4162.025200609977	1
0	2645	4163.494300405877	2
0	2648	4168.2922538232	3
0	2651	4175.692709129606	2
0	2653	4194.032009757156	3
0	2656	4203.155006478846	4
0	2659	4205.515162180394	5
0	2662	4206.430184180125	4
0	2664	4209.417671009462	5
0	2667	4217.049629825985	6
0	2670	4217.686040104896	5
0	2672	4224.350669384567	4
0	2674	4225.162765609566	5
0	2677	4230.595812267627	6
0	2680	4236.370165080913	5
0	2682	4236.704343749007	4
0	2684	4238.813612101401	5
0	2687	4244.041245214538	6
0	2690	4249.565852608023	7
0	2693	4252.829435317324	8
0	2695	4266.424431098334	9
0	2697	4271.354989473987	10
0	2699	4272.514661586567	11
0	2701	4273.682063681861	10
0	2704	4278.06990448993	11
0	2706	4278.412708076508	10
0	2709	4293.892046639738	9
0	2712	4294.974450230548	8
0	2715	4295.896377091893	7
0	2718	4305.269075188261	6
0	2720	4305.662233479208	5
0	2722	4308.602421560818	4
0	2724	4311.190738481092	3
0	2726	4320.61990255595	2
0	2728	4320.706906667824	3
0	2731	4321.290209307537	4
0	2734	4322.33354137592	5
0	2737	4325.748351887453	6
0	2740	4328.472325828163	5
0	2742	4339.248650590166	4
0	2744	4339.528334747555	5
0	2747	4341.884302642925	4
0	2749	4342.223064484071	5
0	2752	4360.392366543849	6
0	2755	4362.834145233513	5
0	2757	4364.06208872354	6
0	2760	4366.731544150151	5
0	2762	4371.516361908856	6
0	2765	4385.670664336579	5
0	2767	4385.779023599709	6
0	2770	4385.904701559873	7
0	2773	4389.47737520318	6
0	2775	4391.952485644958	7
0	2778	4397.887659440958	8
0	2780	4399.765431693152	9
0	2782	4403.468470078759	8
0	2785	4405.85560340613	7
0	2788	4406.80258392233	8
0	2790	4409.364386111519	9
0	2792	4411.193235861946	10
0	2794	4420.603540693291	9
0	2797	4431.901228754377	10
0	2799	4433.2470880861	9
0	2802	4433.5246859259	8
0	2805	4442.884526040702	7
0	2808	4443.937119927768	8
0	2810	4445.172318694059	9
0	2812	4445.35352251645	10
0	2814	4446.292377565721	9
0	2817	4449.150361691002	10
0	2819	4452.870583859237	9
0	2822	4452.964022004167	10
0	2824	4458.091471293684	11
0	2826	4458.632868627163	10
0	2829	4460.125895049868	11
0	2831	4463.908451635146	10
0	2834	4464.097439227142	9
0	2837	4464.437980945613	8
0	2840	4466.689720774449	9
0	2842	4476.380266053761	10
0	2844	4480.239804244735	9
0	2847	4481.987717799408	8
0	2850	4483.717313214594	7
0	2853	4484.924916658193	6
0	2855	4486.596432479873	5
0	2857	4490.559313055623	4
0	2859	4492.284179591631	3
0	2861	4499.431802017473	2
0	2863	4505.693123402178	3
0	2866	4514.135131892842	2
0	2868	4516.687677381467	1
0	2870	4523.805957228765	2
0	2873	4528.195930696671	3
0	2876	4529.346313695801	4
0	2879	4532.579591852436	5
0	2882	4535.07096830034	4
0	2884	4542.589707195559	3
0	2886	4545.525454738364	4
0	2889	4559.719445458655	5
0	2892	4562.079943821332	6
0	2895	4562.193708035815	5
0	2897	4562.931051998411	4
0	2899	4565.234484951765	3
0	2901	4573.624415283287	2
0	2903	4588.35911829913	3
0	2906	4592.619704812305	2
0	2908	4593.372751793593	3
0	2911	4593.878460886909	4
0	2914	4594.256203107549	5
0	2917	4603.321662783658	4
0	2919	4608.530544765337	3
0	2921	4620.042697544388	2
0	2923	4633.689724110613	3
0	2926	4645.766163328128	4
0	2929	4656.320580050022	5
0	2932	4658.613489926876	6
0	2935	4660.241625898438	7
0	2938	4660.345841416993	6
0	2940	4673.892021371496	5
0	2942	4676.256663413868	4
0	2944	4679.818781252525	3
0	2946	4680.892172254938	4
0	2949	4681.841263296891	5
0	2952	4684.004751322224	6
0	2955	4684.629997067198	7
0	2958	4691.638682634325	6
0	2960	4693.898116882137	5
0	2962	4698.465400904479	4
0	2964	4702.770828634308	3
0	2966	4724.330274521271	4
0	2969	4729.784413743575	3
0	2971	4732.007930914566	4
0	2974	4736.519461449929	3
0	2976	4738.251471803786	2
0	2978	4740.588040604382	1
0	2980	4740.887040755951	2
0	2983	4743.939771300205	3
0	2986	4744.354622344817	4
0	2989	4750.348666332704	5
0	2992	4751.736300398536	6
0	2995	4753.32467457964	7
0	2998	4758.884776739407	8
0	3000	4763.088404607527	7
0	3003	4779.37807013685	6
0	3005	4786.2261474307	7
0	3008	4787.421060220485	8
0	3010	4788.917012062067	7
0	3013	4794.256771367556	8
0	3015	4800.018170010729	7
0	3018	4804.831734828641	8
0	3020	4810.278989785925	7
0	3023	4810.336815901586	6
0	3025	4811.403150319808	5
0	3027	4812.369984487633	4
0	3029	4819.351244641467	5
0	3032	4822.828705461138	6
0	3035	4825.849653261501	5
0	3037	4826.076721563248	6
0	3040	4826.450427151678	5
0	3042	4827.231345102663	4
0	3044	4827.325339797625	5
0	3047	4828.258292905565	4
0	3049	4846.354803702336	5
0	3052	4855.985517458551	6
0	3055	4858.939573497981	5
0	3057	4860.762488691678	6
0	3060	4867.202719112765	5
0	3062	4876.785616566842	4
0	3064	4884.102709349789	5
0	3067	4888.197053518923	6
0	3070	4893.104592358154	7
0	3073	4893.545271933349	6
0	3075	4894.923481202409	5
0	3077	4905.674847943124	6
0	3080	4905.863431522089	5
0	3082	4912.07197726381	6
0	3085	4916.222602809019	7
0	3088	4924.131473307929	6
0	3090	4927.428355675269	7
0	3093	4930.970187223375	6
0	3095	4932.174769035437	5
0	3097	4934.771791219484	4
0	3099	4944.643088275453	5
0	3102	4945.034789015512	4
0	3104	4946.399330879625	3
0	3106	4946.767454233895	4
0	3109	4950.988918760304	5
0	3112	4952.603565831076	4
0	3114	4953.11699340602	5
0	3117	4953.924957522837	6
0	3120	4954.836077778973	5
0	3122	4955.199364881286	4
0	3124	4972.998755453689	3
0	3126	4973.81517566686	4
0	3129	4979.09095186813	5
0	3132	4985.158638700038	6
0	3135	4988.181118927523	5
0	3137	4988.593610890818	4
0	3139	4995.582352444331	3
0	3141	4996.940472865458	4
0	3144	5007.620716139709	3
0	3146	5014.133980607144	4
0	3149	5015.374658227538	5
0	3152	5016.659056410011	4
0	3154	5018.421259860345	3
0	3156	5024.854132078775	4
0	3159	5026.509741800718	5
0	3162	5038.337036491535	4
0	3164	5050.138004326605	3
0	3166	5057.623903422924	4
0	3169	5058.585794166559	3
0	3171	5066.981563048929	4
0	3174	5072.219346725878	5
0	3177	5075.197246045999	4
0	3179	5079.706064093252	3
0	3181	5093.82136843799	2
0	3183	5105.37117541084	3
0	3186	5105.516527220313	4
0	3189	5106.93352794807	5
0	3192	5108.800464169998	6
0	3195	5114.182783636088	5
0	3197	5118.057551020576	4
0	3199	5119.834458607258	3
0	3201	5122.876231452225	2
0	3203	5123.911234959358	1
0	3205	5140.855576734396	0
0	3207	5155.590448478201	1
0	3210	5158.524467885978	2
0	3213	5163.271871747895	3
0	3216	5169.307103411464	4
0	3219	5169.856306914513	3
0	3221	5181.228617372684	4
0	3224	5184.971469905804	5
0	3227	5193.322166289768	6
0	3230	5199.569137613261	5
0	3232	5201.468935313338	6
0	3235	5204.926088514791	5
0	3237	5206.233243466304	4
0	3239	5228.552885059554	5
0	3242	5229.716666032914	6
0	3245	5234.402015258092	5
0	3247	5244.869054014274	6
0	3250	5260.622364690097	7
0	3253	5261.201375218213	6
0	3255	5264.28903739875	7
0	3258	5274.283292921582	8
0	3260	5277.10959240094	9
0	3262	5278.185851912416	8
0	3265	5278.35710098704	7
0	3268	5282.601541459051	8
0	3270	5284.367654620523	7
0	3273	5289.089948962926	8
0	3275	5293.905907018587	7
0	3278	5294.28823103228	6
0	3280	5298.910163076083	7
0	3283	5303.485635566437	8
0	3285	5303.506612712074	7
0	3288	5308.254294854821	6
0	3290	5311.269994729165	7
0	3293	5313.564610649997	8
0	3295	5318.990039984913	9
0	3297	5319.749264301657	8
0	3300	5321.967768144418	7
0	3303	5324.014416419676	6
0	3305	5324.580309902689	7
0	3308	5332.077294973411	6
0	3310	5334.289038252769	5
0	3312	5347.148198933945	4
0	3314	5347.493753460509	3
0	3316	5349.162814432846	2
0	3318	5354.733505735245	3
0	3321	5359.894789010001	4
0	3324	5364.81205162887	3
0	3326	5367.392400950819	4
0	3329	5376.16560597218	5
0	3332	5379.147447987482	4
0	3334	5385.523003540517	3
0	3336	5394.512089924945	4
0	3339	5397.535470909279	3
0	3341	5406.502844935847	2
0	3343	5408.760606118874	1
0	3345	5414.834983204543	0
0	3347	5435.514330619123	1
0	3350	5438.215374988288	2
0	3353	5444.24329795496	3
0	3356	5448.795022495197	2
0	3358	5467.29809763811	3
0	3361	5491.688222624777	2
0	3363	5498.299113945276	1
0	3365	5500.169832276805	2
0	3368	5502.969680816194	1
0	3370	5505.198438955322	0
0	3372	5508.214603928956	1
0	3375	5522.499617238933	2
0	3378	5524.910977172534	3
0	3381	5528.394920485319	4
0	3384	5531.266361579878	5
0	3387	5534.291832271113	4
0	3389	5537.629440735842	5
0	3392	5537.713561996645	4
0	3394	5544.636946115405	5
0	3397	5563.930403640657	6
0	3400	5566.37336679571	7
0	3403	5569.949734229428	8
0	3405	5572.462724941434	7
0	3408	5572.925679621903	8
0	3410	5574.914535182945	9
0	3412	5576.366767229847	10
0	3414	5578.957630103226	9
0	3417	5579.444152527617	8
0	3420	5603.123357580378	9
0	3422	5604.997317233498	10
0	3424	5607.132579483678	9
0	3427	5607.341471361514	10
0	3429	5625.574468336659	9
0	3432	5628.357122348098	8
0	3435	5632.234290145302	7
0	3438	5633.389842725143	6
0	3440	5635.48963379092	7
0	3443	5639.510032688782	6
0	3445	5641.08019841387	5
0	3447	5642.702706418221	4
0	3449	5650.782102531614	3
0	3451	5655.271322053991	4
0	3454	5659.444517409112	5
0	3457	5660.104962189999	6
0	3460	5666.68168215237	7
0	3463	5667.564924756505	6
0	3465	5667.788114612248	5
0	3467	5668.236401106998	6
0	3470	5670.147788399317	5
0	3472	5683.962153759782	4
0	3474	5684.431583426938	5
0	3477	5686.587431303666	4
0	3479	5695.265909433863	5
0	3482	5697.957607089756	4
0	3484	5702.925906971592	5
0	3487	5709.272715925853	4
0	3489	5713.203695057935	3
0	3491	5728.652688115892	4
0	3494	5735.869557104734	3
0	3496	5737.278923769049	4
0	3499	5738.972428511011	3
0	3501	5740.00012371508	4
0	3504	5744.370512153356	3
0	3506	5744.793957575163	2
0	3508	5750.577557351728	3
0	3511	5752.953873805058	2
0	3513	5754.831040423237	3
0	3516	5758.925740200156	2
0	3518	5766.527669089963	1
0	3520	5789.707827680355	2
0	3523	5795.126587189587	3
0	3526	5797.322009135813	4
0	3529	5802.657280045723	5
0	3532	5818.999803479024	6
0	3535	5819.258418175339	5
0	3537	5827.208809077355	6
0	3540	5827.448453518047	5
0	3542	5832.220190769481	4
0	3544	5832.992804789239	5
0	3547	5842.799044940352	4
0	3549	5855.883763975094	3
0	3551	5873.169439925707	4
0	3554	5874.117548752527	3
0	3556	5877.253469992296	2
0	3558	5882.162856236171	3
0	3561	5890.891167075172	4
0	3564	5893.566056931219	3
0	3566	5893.961170554788	4
0	3569	5902.456604968323	3
0	3571	5911.763001555009	2
0	3573	5918.447131131001	3
0	3576	5918.700235505349	2
0	3578	5920.204956654955	1
0	3580	5920.493803736583	0
0	3582	5925.182383139546	1
0	3585	5931.218901144632	0
0	3587	5931.840930363387	1
0	3590	5940.94977755525	2
0	3593	5941.433478065129	3
0	3596	5951.346474134176	4
0	3599	5951.866788327946	3
0	3601	5955.248659248983	2
0	3603	5956.915846293172	3
0	3606	5967.043458846333	2
0	3608	5974.443089466135	1
0	3610	5975.148000270336	2
0	3613	5985.010272282779	3
0	3616	5988.142363413507	2
0	3618	5992.474336594263	1
0	3620	6017.548361095803	2
0	3623	6023.225540453555	1
0	3625	6023.870960904288	2
0	3628	6024.046945593952	3
0	3631	6028.260678011094	2
0	3633	6029.485252325966	3
0	3636	6031.428450142909	4
0	3639	6032.03473630807	5
0	3642	6041.466646504435	6
0	3645	6046.888540608383	5
0	3647	6050.085052905818	6
0	3650	6050.658075091163	7
0	3653	6054.672500753275	8
0	3655	6063.510149463028	7
0	3658	6077.024752588899	6
0	3660	6077.728197452337	7
0	3663	6085.303396849877	6
0	3665	6088.607620554053	7
0	3668	6091.762273374984	6
0	3670	6092.43513956989	7
0	3673	6115.709300176354	8
0	3675	6117.016451138932	7
0	3678	6121.694455883974	8
0	3680	6130.38578383173	9
0	3682	6135.737810628166	8
0	3685	6140.736802373705	9
0	3687	6145.107234187748	10
0	3689	6146.133593964079	11
0	3691	6152.700504955104	10
0	3694	6154.745099330365	9
0	3697	6156.451376405235	10
0	3699	6161.27888158521	9
0	3702	6165.604755632617	8
0	3705	6168.502809458097	9
0	3707	6171.215264986765	10
0	3709	6172.787715363961	9
0	3712	6177.264307136077	10
0	3714	6185.641180349657	11
0	3716	6186.213332352291	12
0	3718	6192.201801500688	11
0	3721	6195.005012249973	10
0	3724	6195.062498244164	9
0	3727	6195.239014858709	8
0	3730	6200.208405545392	7
0	3733	6204.099372792727	6
0	3735	6219.696375588831	7
0	3738	6220.706702120162	6
0	3740	6224.245620389148	5
0	3742	6225.343947403434	6
0	3745	6227.897412327559	5
0	3747	6232.190538120822	6
0	3750	6236.693842175438	7
0	3753	6238.755101073009	6
0	3755	6244.458806430524	7
0	3758	6248.557408538821	6
0	3760	6257.791929766952	5
0	3762	6259.50068919751	4
0	3764	6259.573638798118	5
0	3767	6265.566257766948	6
0	3770	6281.230636039424	5
0	3772	6281.486968797594	4
0	3774	6283.862360769219	3
0	3776	6286.881186543184	4
0	3779	6291.937825489602	5
0	3782	6297.283687068076	4
0	3784	6304.960487416414	3
0	3786	6304.966813190414	2
0	3788	6309.98808119242	3
0	3791	6312.997702096782	2
0	3793	6315.969921805564	1
0	3795	6326.331284142043	0
0	3797	6364.924182759643	1
0	3800	6366.573386954127	2
0	3803	6368.124509046947	3
0	3806	6377.153359967428	4
0	3809	6378.26868928362	5
0	3812	6390.542871483682	6
0	3815	6394.445552094957	5
0	3817	6397.565258331346	4
0	3819	6400.504218957996	5
0	3822	6406.955004332506	6
0	3825	6409.40997464316	5
0	3827	6421.557846446532	4
0	3829	6423.778708026521	5
0	3832	6432.588016794348	4
0	3834	6435.820724740335	5
0	3837	6440.383279262466	6
0	3840	6441.549454042483	7
0	3843	6451.330616818518	6
0	3845	6454.400832690889	5
0	3847	6454.626231556967	6
0	3850	6458.490158589813	7
0	3853	6465.880889668286	6
0	3855	6468.750163253286	7
0	3858	6469.491171568323	6
0	3860	6469.902069907123	7
0	3863	6482.296137152037	8
0	3865	6484.080763805627	9
0	3867	6485.931167906578	8
0	3870	6487.418722330666	7
0	3873	6493.571462988861	6
0	3875	6494.825071838982	5
0	3877	6500.963831171889	4
0	3879	6502.334162599838	5
0	3882	6516.347367402393	4
0	3884	6518.390422302941	3
0	3886	6527.699186782415	4
0	3889	6528.504887342902	3
0	3891	6532.913755207512	2
0	3893	6537.510797062678	3
0	3896	6539.088423393033	4
0	3899	6543.746751324156	5
0	3902	6550.927629630622	6
0	3905	6555.167566591929	5
0	3907	6566.686468307958	4
0	3909	6566.785194455269	3
0	3911	6572.964753408487	2
0	3913	6580.906582116063	3
0	3916	6595.527075996643	4
0	3919	6596.080411140006	3
0	3921	6597.425838338997	4
0	3924	6602.424031436737	3
0	3926	6604.984742216627	4
0	3929	6610.435534699168	5
0	3932	6610.899016421073	4
0	3934	6610.948998118582	5
0	3937	6613.159302503593	4
0	3939	6615.844863287378	5
0	3942	6619.670291873911	6
0	3945	6620.741106469999	7
0	3948	6621.659667635363	8
0	3950	6653.184134559044	7
0	3953	6653.367023203707	6
0	3955	6657.340849226969	7
0	3958	6658.631981186425	6
0	3960	6660.551381157171	5
0	3962	6664.568738067788	6
0	3965	6665.101487772517	7
0	3968	6673.490728449338	6
0	3970	6675.163284826086	5
0	3972	6680.869834716247	4
0	3974	6681.059471292012	5
0	3977	6686.66140673596	4
0	3979	6694.404008461679	5
0	3982	6696.576662577907	4
0	3984	6698.374861044473	3
0	3986	6701.988244871745	2
0	3988	6702.172336332038	3
0	3991	6715.586268850878	4
0	3994	6715.778802054976	5
0	3997	6716.700827363601	6
0	4000	6717.345007720729	5
0	4002	6722.556558759229	4
0	4004	6729.319538154091	5
0	4007	6733.073598334272	4
0	4009	6733.113379737032	5
0	4012	6735.191135476799	6
0	4015	6737.214439431489	7
0	4018	6737.896839252815	8
0	4020	6745.00140095854	7
0	4023	6751.115666838623	6
0	4025	6757.002844547795	7
0	4028	6762.917145655025	8
0	4030	6764.357971172364	7
0	4033	6771.094885773529	6
0	4035	6771.532114241385	7
0	4038	6772.120339190896	6
0	4040	6773.149547157471	5
0	4042	6779.97238692457	6
0	4045	6781.105100054453	5
0	4047	6781.921830521564	6
0	4050	6786.706714660043	5
0	4052	6790.870605828895	4
0	4054	6795.127497982673	3
0	4056	6795.509662267332	4
0	4059	6799.721922891587	3
0	4061	6800.439549418645	4
0	4064	6800.850018580266	3
0	4066	6806.17267435923	4
0	4069	6808.209250723485	3
0	4071	6810.460627471407	2
0	4073	6814.110939100234	1
0	4075	6820.374012685103	0
0	4077	6823.620599496334	1
0	4080	6823.682756599449	2
0	4083	6834.167336416057	1
0	4085	6841.491072124614	0
0	4087	6868.528661410506	1
0	4090	6872.53649344657	2
0	4093	6876.29808358312	3
0	4096	6878.089830303729	2
0	4098	6878.513559916164	1
0	4100	6887.831348946749	2
0	4103	6892.454696074446	1
0	4105	6893.050152301856	2
0	4108	6893.434893102124	3
0	4111	6895.522026799245	4
0	4114	6924.67963508818	5
0	4117	6926.433024205595	6
0	4120	6932.771607227078	7
0	4123	6932.879082101454	6
0	4125	6933.228394066436	5
0	4127	6936.313794111173	4
0	4129	6938.381930808378	5
0	4132	6940.137642936881	6
0	4135	6941.153969126822	5
0	4137	6944.766521458773	4
0	4139	6945.354494776759	5
0	4142	6962.833911754581	4
0	4144	6964.544702293432	5
0	4147	6965.191913766789	4
0	4149	6991.442405364839	3
0	4151	6994.364254756864	4
0	4154	6996.347968599477	5
0	4157	6996.525622540904	4
0	4159	6996.819361676117	5
0	4162	7002.287846395074	4
0	4164	7007.719285129495	3
0	4166	7014.599678832226	4
0	4169	7015.891468145555	5
0	4172	7016.830823547244	4
0	4174	7017.415992793623	5
0	4177	7018.996416820385	4
0	4179	7020.055283642656	5
0	4182	7034.174266646989	4
0	4184	7034.95067208936	5
0	4187	7038.92305808351	4
0	4189	7046.282544615082	3
0	4191	7048.153857753479	4
0	4194	7049.730633664377	5
0	4197	7050.299359662435	4
0	4199	7063.246210094833	5
0	4202	7067.285031576153	6
0	4205	7067.361834835725	7
0	4208	7074.781902462479	8
0	4210	7078.725077581473	9
0	4212	7088.330935110577	10
0	4214	7088.442534280264	11
0	4216	7092.484611058706	12
0	4218	7092.629199276986	13
0	4220	7095.384963258067	12
0	4223	7099.018657167582	11
0	4226	7100.2048699888	12
0	4228	7106.905002700024	11
0	4231	7107.214858612493	10
0	4234	7110.386387868739	9
0	4237	7113.396033288707	10
0	4239	7114.637722363181	9
0	4242	7116.810642507342	10
0	4244	7119.054991990306	9
0	4247	7119.384276184165	10
0	4249	7129.869496893937	9
0	4252	7131.140701215158	8
0	4255	7131.793217235698	7
0	4258	7133.749952793861	6
0	4260	7142.297308529077	5
0	4262	7143.267786930705	4
0	4264	7151.731977274809	3
0	4266	7153.253878793631	2
0	4268	7163.548352740777	3
0	4271	7173.51724859902	4
0	4274	7175.853833308754	3
0	4276	7178.131737891139	4
0	4279	7185.075539792461	3
0	4281	7188.557161388925	4
0	4284	7202.098903407399	5
0	4287	7202.254688987111	4
0	4289	7207.668106159402	5
0	4292	7219.204564171832	6
0	4295	7219.517515083668	5
0	4297	7220.472914124594	6
0	4300	7220.714081306657	7
0	4303	7221.570461786014	6
0	4305	7221.951933364882	5
0	4307	7225.371593831869	6
0	4310	7236.270483958444	5
0	4312	7237.35639792117	4
0	4314	7243.534353121003	3
0	4316	7271.775105568225	2
0	4318	7284.465399748645	3
0	4321	7288.562028371526	2
0	4323	7293.178257483778	3
0	4326	7307.413617621946	4
0	4329	7318.59927404143	5
0	4332	7323.687460034828	4
0	4334	7328.407958381425	5
0	4337	7328.754244631657	6
0	4340	7331.421085191962	5
0	4342	7336.869165852489	6
0	4345	7342.627739259574	5
0	4347	7347.807947910945	4
0	4349	7350.784976812901	3
0	4351	7357.036399457585	4
0	4354	7360.636229489496	5
0	4357	7380.191985667921	6
0	4360	7380.273142070289	5
0	4362	7389.614844801119	4
0	4364	7393.523192509388	5
0	4367	7394.467253899562	6
0	4370	7398.873990841551	7
0	4373	7404.365553760215	8
0	4375	7405.792271728837	9
0	4377	7408.379940754236	10
0	4379	7408.656940627044	9
0	4382	7416.479266555412	8
0	4385	7419.84271045833	7
0	4388	7420.818707673022	8
0	4390	7425.823501558082	9
0	4392	7427.939133731952	10
0	4394	7430.144713538674	11
0	4396	7433.097919036406	12
0	4398	7443.913177322226	13
0	4400	7445.228261528566	14
0	4402	7448.699465902389	13
0	4405	7448.760735863433	12
0	4408	7449.480983535749	11
0	4411	7452.484766610955	10
0	4414	7458.238131947086	11
0	4416	7465.601312509755	10
0	4419	7467.586492242366	11
0	4421	7468.374248203527	10
0	4424	7468.790557166924	9
0	4427	7471.043625562071	10
0	4429	7471.28466907924	11
0	4431	7472.710449271005	10
0	4434	7474.163501236856	9
0	4437	7474.305868347657	10
0	4439	7476.573602370399	11
0	4441	7478.801650540576	12
0	4443	7478.857964682265	11
0	4446	7484.783301710389	12
0	4448	7485.264509586478	13
0	4450	7488.804095887066	12
0	4453	7489.024858957659	11
0	4456	7490.642329749841	12
0	4458	7493.013246080961	11
0	4461	7495.569662029287	10
0	4464	7497.341533475463	11
0	4466	7521.314417184957	10
0	4469	7522.033685047748	9
0	4472	7523.202604894796	10
0	4474	7529.127312388756	9
0	4477	7531.71542005438	8
0	4480	7534.44605385422	7
0	4483	7535.640135556878	8
0	4485	7535.642730640566	9
0	4487	7536.543175839184	8
0	4490	7538.065239299244	9
0	4492	7538.338273507607	8
0	4495	7550.225831059817	7
0	4498	7556.674690529026	6
0	4500	7565.323966409311	7
0	4503	7565.427625153818	8
0	4505	7571.223085177301	9
0	4507	7571.333581940824	8
0	4510	7575.664293902763	7
0	4513	7577.204091329826	6
0	4515	7577.576470790544	7
0	4518	7579.965344096604	6
0	4520	7588.464268660331	5
0	4522	7588.501647483207	6
0	4525	7588.679683294622	7
0	4528	7593.196628515985	6
0	4530	7596.278786338528	5
0	4532	7597.985117281271	6
0	4535	7601.805221180753	7
0	4538	7609.860120153785	6
0	4540	7621.159359410174	5
0	4542	7622.938772420989	4
0	4544	7624.552389774021	3
0	4546	7629.310148863849	2
0	4548	7640.124496006185	3
0	4551	7644.551884059286	4
0	4554	7647.561972228302	5
0	4557	7653.745240096984	6
0	4560	7654.282214717948	5
0	4562	7654.487999460908	6
0	4565	7656.804654391396	7
0	4568	7659.254624955179	6
0	4570	7666.778964939216	5
0	4572	7678.581939770242	6
0	4575	7682.498146452073	5
0	4577	7687.061432226749	6
0	4580	7694.60760485589	5
0	4582	7694.645787421772	6
0	4585	7696.27719341732	7
0	4588	7697.04469030724	6
0	4590	7697.285112314175	7
0	4593	7697.634332704227	6
0	4595	7702.268915094588	5
0	4597	7703.050525935613	4
0	4599	7704.171516906346	3
0	4601	7704.255596146809	4
0	4604	7707.659672210879	5
0	4607	7708.492011681911	4
0	4609	7712.099989448102	3
0	4611	7721.416705953692	2
0	4613	7727.778569652325	3
0	4616	7740.054977134234	4
0	4619	7742.752507776551	5
0	4622	7749.512292458111	6
0	4625	7751.389435680034	7
0	4628	7754.820517154834	6
0	4630	7757.271020619438	7
0	4633	7760.535509970545	6
0	4635	7762.497272606938	5
0	4637	7763.150894247716	6
0	4640	7772.816597547426	5
0	4642	7800.15494078828	6
0	4645	7800.899640376916	7
0	4648	7807.580009662171	8
0	4650	7813.975669692949	9
0	4652	7825.551507424486	10
0	4654	7830.247664929309	9
0	4657	7834.082333555617	8
0	4660	7838.768481931092	7
0	4663	7841.171479932198	8
0	4665	7842.474316466002	7
0	4668	7849.214559758416	6
0	4670	7849.76308022871	7
0	4673	7849.813595046923	6
0	4675	7855.896553701039	7
0	4678	7856.805486230743	8
0	4680	7866.217955145991	9
0	4682	7868.402025106991	8
0	4685	7870.461178390384	7
0	4688	7873.458996389294	6
0	4690	7875.745440121705	5
0	4692	7877.06494109569	6
0	4695	7879.507575826949	7
0	4698	7881.545997616818	6
0	4700	7882.901858434407	7
0	4703	7887.09210260027	8
0	4705	7893.252391774069	9
0	4707	7893.490102715624	8
0	4710	7894.210056237153	7
0	4713	7896.181862710486	8
0	4715	7898.238588999929	9
0	4717	7899.678681286847	8
0	4720	7902.028859874242	9
0	4722	7904.809504896526	10
0	4724	7923.350172856277	9
0	4727	7924.675765755779	10
0	4729	7927.414776333929	11
0	4731	7930.707412002978	10
0	4734	7944.766061632366	11
0	4736	7947.296769638003	12
0	4738	7950.566835145998	13
0	4740	7952.132946307513	14
0	4742	7963.079936526638	13
0	4745	7964.343745179565	12
0	4748	7966.995250953718	11
0	4751	7968.21611205684	10
0	4754	7974.042019091917	9
0	4757	7975.731519525632	10
0	4759	7977.18745770963	11
0	4761	7979.857161381315	10
0	4764	7983.834671457316	9
0	4767	7983.840672896508	10
0	4769	7984.695817275845	11
0	4771	7986.045040884883	10
0	4774	7993.776003438969	11
0	4776	8002.478968561664	12
0	4778	8003.017598765335	11
0	4781	8004.50887334788	12
0	4783	8010.897884298358	11
0	4786	8011.952414764874	10
0	4789	8012.969497102562	9
0	4792	8021.369595867706	8
0	4795	8028.260466658259	7
0	4798	8031.368647932111	8
0	4800	8033.829442717479	7
0	4803	8041.720676557504	8
0	4805	8041.975056185366	7
0	4808	8042.176055793764	8
0	4810	8048.764257830053	7
0	4813	8052.153515732671	6
0	4815	8052.343905276623	5
0	4817	8053.503821127686	6
0	4820	8055.748480400946	7
0	4823	8056.742481284191	6
0	4825	8057.248211439106	7
0	4828	8057.812675594587	6
0	4830	8063.63307060887	7
0	4833	8064.317180810581	8
0	4835	8068.157173645332	7
0	4838	8069.91824791431	6
0	4840	8072.027272395953	7
0	4843	8075.923076609606	6
0	4845	8078.415351865051	5
0	4847	8078.684287274254	6
0	4850	8085.665744690483	7
0	4853	8094.683667322842	8
0	4855	8094.691613217455	7
0	4858	8097.588614886732	8
0	4860	8098.181842554582	9
0	4862	8098.804333014963	8
0	4865	8101.610530117656	9
0	4867	8109.39264855051	8
0	4870	8109.888443646895	7
0	4873	8114.579362606524	6
0	4875	8124.055650705235	5
0	4877	8128.143169368234	4
0	4879	8133.548401459851	3
0	4881	8134.152967314662	4
0	4884	8134.540789022248	5
0	4887	8134.829134162522	6
0	4890	8140.785986674087	7
0	4893	8145.031318894181	6
0	4895	8147.887230135465	5
0	4897	8148.954948087364	4
0	4899	8151.814483502387	3
0	4901	8153.622736592635	2
0	4903	8161.559848052114	3
0	4906	8167.389355626647	4
0	4909	8167.803488663275	5
0	4912	8172.687411152162	6
0	4915	8178.663739063436	5
0	4917	8182.497044101682	6
0	4920	8186.372425097066	5
0	4922	8195.448163624743	6
0	4925	8195.561966077177	5
0	4927	8196.398516153815	4
0	4929	8197.639076175243	3
0	4931	8211.807838031787	4
0	4934	8212.742312102963	3
0	4936	8216.566924839887	4
0	4939	8218.284593227214	5
0	4942	8218.773825904552	4
0	4944	8219.930487684032	5
0	4947	8221.046142144174	6
0	4950	8221.803945789174	7
0	4953	8224.99214638019	6
0	4955	8228.476642044219	7
0	4958	8231.315409699136	6
0	4960	8231.519827168286	7
0	4963	8232.837336019997	6
0	4965	8251.242835357869	5
0	4967	8254.394166907299	6
0	4970	8254.488919907495	5
0	4972	8254.903646072122	4
0	4974	8272.394708289863	5
0	4977	8273.373525155542	4
0	4979	8273.424829658374	5
0	4982	8274.22268967972	4
0	4984	8277.483598272876	5
0	4987	8284.153207879433	4
0	4989	8288.2136439211	3
0	4991	8295.800285127161	4
0	4994	8298.546987199081	5
0	4997	8302.254290214064	6
0	5000	8304.262474788491	7
0	5003	8304.559717464716	6
0	5005	8306.859957577505	7
0	5008	8307.79572635514	6
0	5010	8308.475697982044	5
0	5012	8308.906850945483	4
0	5014	8313.337731825837	3
0	5016	8315.791157273043	2
0	5018	8322.471868775628	1
0	5020	8326.281950021603	2
0	5023	8336.815960731615	3
0	5026	8344.70028747649	4
0	5029	8351.828656156921	5
0	5032	8352.691925689773	4
0	5034	8354.105018854856	3
0	5036	8354.224537245251	2
0	5038	8354.30491441489	3
0	5041	8356.991973198779	4
0	5044	8359.009310805498	5
0	5047	8363.360974314156	4
0	5049	8365.545398031776	3
0	5051	8368.909659241225	2
0	5053	8371.532033136416	3
0	5056	8374.871654086813	4
0	5059	8379.316397473771	3
0	5061	8381.718699724611	2
0	5063	8382.180040564951	3
0	5066	8396.014220683815	4
0	5069	8400.843831859468	5
0	5072	8405.30813001324	6
0	5075	8406.836373328795	7
0	5078	8407.30316648229	6
0	5080	8410.760788210469	7
0	5083	8411.944560915097	6
0	5085	8412.500181657751	5
0	5087	8413.114594972478	4
0	5089	8425.243283705	3
0	5091	8425.259628598691	4
0	5094	8430.407416668108	5
0	5097	8436.372914070746	4
0	5099	8449.234436441415	3
0	5101	8452.575779310454	4
0	5104	8454.835749386588	3
0	5106	8463.353626356738	2
0	5108	8463.984444434365	1
0	5110	8472.484477623251	0
0	5112	8474.771742292895	1
0	5115	8482.931902378575	2
0	5118	8500.703296044572	1
0	5120	8500.988777083999	2
0	5123	8524.327696547023	3
0	5126	8528.032215661181	2
0	5128	8529.814891856736	1
0	5130	8531.335461033076	2
0	5133	8533.940168573865	3
0	5136	8536.793268344109	4
0	5139	8541.060306106851	3
0	5141	8541.10357845134	4
0	5144	8544.561094955968	3
0	5146	8546.426724965312	2
0	5148	8549.709465534888	3
0	5151	8554.488165851261	2
0	5153	8556.545487871823	1
0	5155	8560.661392862805	2
0	5158	8575.793324100156	1
0	5160	8578.692934540962	2
0	5163	8592.530205438883	3
0	5166	8594.039009092067	4
0	5169	8595.521424001692	5
0	5172	8595.720626648282	4
0	5174	8597.44042756264	3
0	5176	8610.893882951827	2
0	5178	8622.81461147524	3
0	5181	8623.319552469566	4
0	5184	8625.85541385144	3
0	5186	8636.62846636107	4
0	5189	8643.489823607645	3
0	5191	8647.173323378765	4
0	5194	8649.67763729023	3
0	5196	8661.075765693934	2
0	5198	8663.782518970698	1
0	5200	8668.607042065332	2
0	5203	8669.407238947743	1
0	5205	8669.457141386775	2
0	5208	8670.786555932279	3
0	5211	8672.16413570404	2
0	5213	8678.392145331915	3
0	5216	8681.216437158499	2
0	5218	8681.732656243245	1
0	5220	8693.570545177269	0
0	5222	8737.704773765123	1
0	5225	8738.046052383031	2
0	5228	8739.277162826946	3
0	5231	8745.765195229312	4
0	5234	8750.347222115672	3
0	5236	8751.14341183432	4
0	5239	8755.099024359949	5
0	5242	8759.649501326414	4
0	5244	8767.740868353353	3
0	5246	8771.016931208698	2
0	5248	8786.054893403457	1
0	5250	8787.187479677821	2
0	5253	8791.291028801439	1
0	5255	8793.477510103836	0
0	5257	8798.141460214768	1
0	5260	8798.316728755599	0
0	5262	8810.448135449211	1
0	5265	8828.751163069889	2
0	5268	8843.540980491678	1
0	5270	8843.576340981617	2
0	5273	8849.086585107476	3
0	5276	8850.113749064812	4
0	5279	8853.076756685144	3
0	5281	8858.462922766273	2
0	5283	8859.29237034333	3
0	5286	8860.221712764888	4
0	5289	8860.922462619649	5
0	5292	8861.683348983431	4
0	5294	8861.786367276003	5
0	5297	8862.067744380732	4
0	5299	8864.272510561166	5
0	5302	8865.000156436601	6
0	5305	8867.020432937947	7
0	5308	8867.848744914026	6
0	5310	8872.510302019859	5
0	5312	8873.008633810222	4
0	5314	8873.743557669654	5
0	5317	8883.0985097784	4
0	5319	8892.227698189778	5
0	5322	8904.110066662958	6
0	5325	8904.312025050528	7
0	5328	8906.326669253228	6
0	5330	8907.002629727566	5
0	5332	8914.03796912038	6
0	5335	8916.17631402089	7
0	5338	8917.391242024402	6
0	5340	8918.224177365734	5
0	5342	8920.28165551975	4
0	5344	8928.238599923924	3
0	5346	8929.652326509042	4
0	5349	8931.477351387959	5
0	5352	8934.578107144562	6
0	5355	8948.176612981471	5
0	5357	8954.785644372499	4
0	5359	8959.003000100961	3
0	5361	8960.901514473875	4
0	5364	8962.300561878278	5
0	5367	8962.78032357016	4
0	5369	8971.325183491441	3
0	5371	8974.311366508207	4
0	5374	8976.897427012022	3
0	5376	8977.134825142973	2
0	5378	8990.159623987718	3
0	5381	8994.237129745615	4
0	5384	9010.13370720331	3
0	5386	9011.497526881425	4
0	5389	9012.697183229458	3
0	5391	9016.910603505695	4
0	5394	9016.96474177046	3
0	5396	9024.748878501455	2
0	5398	9039.770399580092	3
0	5401	9039.831686835114	4
0	5404	9046.407854594563	5
0	5407	9053.226035404614	6
0	5410	9053.989458802018	7
0	5413	9056.350740247578	8
0	5415	9056.639074788696	7
0	5418	9065.465719581167	6
0	5420	9068.409797024634	7
0	5423	9071.484091602237	8
0	5425	9080.219970626998	7
0	5428	9082.351921157763	6
0	5430	9083.206901791738	7
0	5433	9083.669711108133	8
0	5435	9089.797532274601	9
0	5437	9093.041520796739	10
0	5439	9093.901589960493	9
0	5442	9093.977187901107	8
0	5445	9095.052206747597	7
0	5448	9097.109501175876	6
0	5450	9102.490013163454	7
0	5453	9108.922595513909	8
0	5455	9108.952041243578	9
0	5457	9113.056729052775	8
0	5460	9116.403584993034	9
0	5462	9124.192787832772	8
0	5465	9126.967662861219	7
0	5468	9131.533194684173	6
0	5470	9139.99626482726	5
0	5472	9145.441524452929	6
0	5475	9145.833535184433	7
0	5478	9146.512928330854	8
0	5480	9151.179021109529	9
0	5482	9151.785546707067	8
0	5485	9156.525128029941	7
0	5488	9156.974425234689	6
0	5490	9160.891664116351	5
0	5492	9164.609450018047	4
0	5494	9165.329979630772	3
0	5496	9196.605520695255	2
0	5498	9197.060696694278	3
0	5501	9197.437644165279	2
0	5503	9197.915165373504	1
0	5505	9199.200353897981	2
0	5508	9199.62858210474	1
0	5510	9202.238439935379	2
0	5513	9206.577345567645	1
0	5515	9208.321560805956	2
0	5518	9209.946828653254	3
0	5521	9211.916229630966	2
0	5523	9236.081850972474	3
0	5526	9249.307673337482	4
0	5529	9250.885047840796	3
0	5531	9252.15208425217	4
0	5534	9253.45020885144	5
0	5537	9254.305470819595	4
0	5539	9255.443062838881	3
0	5541	9260.607710152923	4
0	5544	9261.261134344393	3
0	5546	9267.676219125067	4
0	5549	9269.608459692253	5
0	5552	9276.627122198925	4
0	5554	9280.154618716196	3
0	5556	9281.426347042835	2
0	5558	9282.879783882945	3
0	5561	9286.57722560688	2
0	5563	9287.836650641324	3
0	5566	9293.751816021171	4
0	5569	9297.230441956793	5
0	5572	9298.678347445978	4
0	5574	9299.645107092665	3
0	5576	9302.141201623127	4
0	5579	9304.737300646836	3
0	5581	9306.66083495793	4
0	5584	9312.053352688212	3
0	5586	9312.840887996747	4
0	5589	9313.135852953532	3
0	5591	9313.975950197483	4
0	5594	9315.213880277797	5
0	5597	9315.740784848553	6
0	5600	9322.140365553158	7
0	5603	9322.555487148651	6
0	5605	9323.12418709899	5
0	5607	9324.549555804818	4
0	5609	9325.704982376523	3
0	5611	9330.779675794584	4
0	5614	9332.401234944997	3
0	5616	9353.343754044573	4
0	5619	9357.540866790405	5
0	5622	9365.290882752153	4
0	5624	9365.422045181929	5
0	5627	9372.094462764238	4
0	5629	9374.518445401832	3
0	5631	9378.398457716481	2
0	5633	9385.386749816798	3
0	5636	9392.216352960431	2
0	5638	9395.829329966363	3
0	5641	9398.750334920059	2
0	5643	9402.061225601438	3
0	5646	9403.896762592084	2
0	5648	9404.482295189012	3
0	5651	9421.367904048295	4
0	5654	9424.785519364567	3
0	5656	9437.817148531964	4
0	5659	9438.731934606699	3
0	5661	9453.839444530452	2
0	5663	9465.425072715455	1
0	5665	9490.053638920049	0
0	5667	9490.775577617506	1
0	5670	9491.866463639658	2
0	5673	9494.713797443662	3
0	5676	9494.763560864452	4
0	5679	9494.777030080577	3
0	5681	9501.846034218534	4
0	5684	9502.686245435466	3
0	5686	9513.832504104758	2
0	5688	9515.107575688949	3
0	5691	9518.369309743475	2
0	5693	9518.80260470065	1
0	5695	9522.093213705267	2
0	5698	9552.678665526048	1
0	5700	9562.332173337746	2
0	5703	9566.579434326695	3
0	5706	9572.382249678387	4
0	5709	9573.901969305456	3
0	5711	9577.970010180527	4
0	5714	9593.509206135755	5
0	5717	9597.234434385025	6
0	5720	9600.303517802229	5
0	5722	9607.95537404085	4
0	5724	9609.417889458034	3
0	5726	9618.083154183483	2
0	5728	9622.137883005059	1
0	5730	9624.047337944902	0
0	5732	9636.298727942263	1
0	5735	9637.236308401197	2
0	5738	9649.676447099755	3
0	5741	9658.931823788175	2
0	5743	9683.818469482556	1
0	5745	9686.203624851021	2
0	5748	9690.716206459708	3
0	5751	9698.339793234404	4
0	5754	9703.786521541963	3
0	5756	9710.273325240622	4
0	5759	9714.251542030676	5
0	5762	9725.576143106165	4
0	5764	9726.622033749974	3
0	5766	9727.256338545938	2
0	5768	9731.018645917607	3
0	5771	9732.801730843572	2
0	5773	9733.916320329424	3
0	5776	9734.437483675101	4
0	5779	9737.223357986358	5
0	5782	9742.690738762533	4
0	5784	9743.794032715484	5
0	5787	9746.748565039521	4
0	5789	9751.072462386476	3
0	5791	9754.947602876469	4
0	5794	9758.295963600462	5
0	5797	9758.51299288041	6
0	5800	9761.845826753354	7
0	5803	9761.913042189287	8
0	5805	9762.484741370554	7
0	5808	9763.501254503359	6
0	5810	9766.120892812965	7
0	5813	9768.330238205864	6
0	5815	9770.597212535373	5
0	5817	9776.958897659296	4
0	5819	9780.391859081251	5
0	5822	9787.751624034751	6
0	5825	9792.139063635356	7
0	5828	9793.977364954579	6
0	5830	9796.070952008354	5
0	5832	9797.343720167996	6
0	5835	9800.85324083121	7
0	5838	9801.129109628069	8
0	5840	9804.425870168141	9
0	5842	9806.84545938011	8
0	5845	9806.980089500838	7
0	5848	9807.722825575043	6
0	5850	9812.714193016109	5
0	5852	9812.871635834832	4
0	5854	9813.197781645594	5
0	5857	9813.687923646141	4
0	5859	9814.837378463742	5
0	5862	9817.034881003363	6
0	5865	9822.657296052515	7
0	5868	9823.321865107705	6
0	5870	9825.036074453179	7
0	5873	9826.850267794531	6
0	5875	9827.878614973283	5
0	5877	9830.640891940563	4
0	5879	9842.146597223218	3
0	5881	9848.335421627452	4
0	5884	9848.5866493904	5
0	5887	9849.188417609465	4
0	5889	9852.01880113112	3
0	5891	9853.911244240891	2
0	5893	9854.618593872943	3
0	5896	9861.762887137125	2
0	5898	9864.038540391138	3
0	5901	9865.849172838474	4
0	5904	9866.297472913049	5
0	5907	9867.978697905627	4
0	5909	9880.7716836818	5
0	5912	9885.410192658821	4
0	5914	9886.960614228993	5
0	5917	9894.789603051063	6
0	5920	9898.500264467308	7
0	5923	9899.188863243948	8
0	5925	9916.108851215346	7
0	5928	9916.234290504957	6
0	5930	9917.931447009168	7
0	5933	9928.175850109192	8
0	5935	9931.014839757215	7
0	5938	9932.638123557436	8
0	5940	9933.122385841367	9
0	5942	9934.577751196225	10
0	5944	9937.76956514278	9
0	5947	9938.074365882974	8
0	5950	9938.702737913745	9
0	5952	9949.457485810263	10
0	5954	9956.422106134217	11
0	5956	9958.260462109091	12
0	5958	9958.572758042092	11
0	5961	9960.165891280034	10
0	5964	9961.047318817792	11
0	5966	9962.523379540674	10
0	5969	9968.52746038389	11
0	5971	9968.71523244376	10
0	5974	9971.755767405096	9
0	5977	9980.514569903099	10
0	5979	9980.661567444121	11
0	5981	9980.876584235104	12
0	5983	9982.412836002895	13
0	5985	9983.303124188134	12
0	5988	9983.652168402812	13
0	5990	9987.404755513188	14
0	5992	9991.49618917007	13
0	5995	9991.534348272677	12
0	5998	9991.628486391917	13
0	6000	9992.202093328496	12
0	6003	9992.460329777784	11
0	6006	9996.746691104443	12
0	6008	10000.167565254215	11
0	6011	10016.631633342351	10
0	6014	10017.253367846686	11
0	6016	10019.130496411995	12
0	6018	10020.696024166806	13
0	6020	10022.4955652432	12
0	6023	10023.499253700498	11
0	6026	10032.250871738657	10
0	6029	10036.443327993641	11
0	6031	10037.671283895755	12
0	6033	10038.71627755258	13
0	6035	10040.276527518835	14
0	6037	10043.857324818671	13
0	6040	10044.075711090071	14
0	6042	10048.547686601239	13
0	6045	10048.768366630536	12
0	6048	10052.432720839272	11
0	6051	10065.500802260096	12
0	6053	10066.939163816483	11
0	6056	10074.66362770418	10
0	6059	10077.936779083195	11
0	6061	10082.898118706323	10
0	6064	10085.917032523092	11
0	6066	10091.579799799628	10
0	6069	10094.81735716393	9
0	6072	10097.191978403283	8
0	6075	10099.976542475362	7
0	6078	10104.264830710098	8
0	6080	10105.277307902299	7
0	6083	10109.746742313323	6
0	6085	10113.960138843277	5
0	6087	10117.370855800986	6
0	6090	10121.54523618459	7
0	6093	10123.217170170087	6
0	6095	10123.239049307572	5
0	6097	10124.734338002839	6
0	6100	10133.033397636534	5
0	6102	10133.567360313951	4
0	6104	10136.764489972708	3
0	6106	10138.398934873546	2
0	6108	10139.808706606699	1
0	6110	10159.24376042303	2
0	6113	10166.164568491983	1
0	6115	10167.679450205261	2
0	6118	10169.825182071317	1
0	6120	10171.84414304632	0
0	6122	10174.562096106416	1
0	6125	10199.04519167485	2
0	6128	10199.589382815611	1
0	6130	10204.184181822331	2
0	6133	10207.805551044032	1
0	6135	10217.370772575603	2
0	6138	10219.122193888207	3
0	6141	10220.979731746049	4
0	6144	10226.907583584532	5
0	6147	10229.426367898218	6
0	6150	10229.816159370972	5
0	6152	10233.716852255731	4
0	6154	10234.462345384691	3
0	6156	10245.049638252548	2
0	6158	10246.264864802308	3
0	6161	10251.756126463947	2
0	6163	10261.41801616804	3
0	6166	10263.679025248508	2
0	6168	10265.764062186387	3
0	6171	10267.141111227017	2
0	6173	10268.878256147586	3
0	6176	10271.424835084802	4
0	6179	10274.39551146696	5
0	6182	10279.009025512444	4
0	6184	10282.97771111779	5
0	6187	10285.852714166222	4
0	6189	10296.296279562075	3
0	6191	10296.749158034902	4
0	6194	10297.795250352072	5
0	6197	10302.736354336423	6
0	6200	10304.805202164708	5
0	6202	10305.446183489383	4
0	6204	10310.682551826607	3
0	6206	10311.86939053757	2
0	6208	10313.20319213916	3
0	6211	10316.495416417317	4
0	6214	10332.067209080614	3
0	6216	10339.061119499954	4
0	6219	10342.718912640889	5
0	6222	10344.98283370653	4
0	6224	10350.166644555556	3
0	6226	10361.832487774552	4
0	6229	10364.491894461675	5
0	6232	10367.121105148933	4
0	6234	10369.884683255139	3
0	6236	10371.854537946601	2
0	6238	10375.883611156882	1
0	6240	10379.063564633778	0
0	6242	10379.668855587493	1
0	6245	10388.548509145517	0
0	6247	10395.375426990131	1
0	6250	10401.534183631287	2
0	6253	10414.13144853798	3
0	6256	10414.95878251811	4
0	6259	10419.416387000077	5
0	6262	10424.934867965486	6
0	6265	10425.968021796379	5
0	6267	10432.83651381606	6
0	6270	10435.990836870744	5
0	6272	10442.462417629324	6
0	6275	10446.420373671979	5
0	6277	10447.010371567884	6
0	6280	10447.028686680854	5
0	6282	10451.012361675923	4
0	6284	10456.19453635921	3
0	6286	10465.08004074857	4
0	6289	10468.758978520996	3
0	6291	10469.818819000254	4
0	6294	10473.253062396483	5
0	6297	10476.958999402011	6
0	6300	10478.69877365279	5
0	6302	10479.743030498305	6
0	6305	10480.398497685851	5
0	6307	10481.239099095407	4
0	6309	10484.073801742995	3
0	6311	10487.50091534595	4
0	6314	10487.903386356728	5
0	6317	10491.115108506848	6
0	6320	10491.368240803395	7
0	6323	10491.571354142717	8
0	6325	10493.821301808139	9
0	6327	10497.071166228265	8
0	6330	10502.120686917035	7
0	6333	10503.634942064905	6
0	6335	10504.91810092013	5
0	6337	10508.22919413943	6
0	6340	10508.432947875144	5
0	6342	10513.457497702444	6
0	6345	10518.888689921943	7
0	6348	10522.127158176887	6
0	6350	10524.551215200753	5
0	6352	10525.037348199281	6
0	6355	10527.978947458047	5
0	6357	10532.32052734915	6
0	6360	10532.789888623203	5
0	6362	10533.347936783966	6
0	6365	10533.596641809542	5
0	6367	10534.91814626402	6
0	6370	10536.634328234553	5
0	6372	10545.822408616707	4
0	6374	10555.713294793879	5
0	6377	10557.405430233737	4
0	6379	10563.9359016986	5
0	6382	10568.591958706949	4
0	6384	10575.180280419482	5
0	6387	10577.57911374525	6
0	6390	10579.240576684227	7
0	6393	10579.565617968307	8
0	6395	10582.227656728105	7
0	6398	10583.293047363877	8
0	6400	10583.347229363163	9
0	6402	10585.453522499623	8
0	6405	10588.791625198835	9
0	6407	10593.066286739569	10
0	6409	10599.09059224626	9
0	6412	10599.525115570519	8
0	6415	10604.534486239828	7
0	6418	10606.766702881654	8
0	6420	10609.314459931832	7
0	6423	10609.759066401397	8
0	6425	10613.3686622622	9
0	6427	10615.362194711223	10
0	6429	10615.964238282239	9
0	6432	10617.018528441479	8
0	6435	10619.225222773487	9
0	6437	10627.400693131361	8
0	6440	10630.479548107723	7
0	6443	10632.432229431044	6
0	6445	10634.548174705926	5
0	6447	10642.242914529767	4
0	6449	10642.832368195584	5
0	6452	10643.526076792336	4
0	6454	10647.784673397648	5
0	6457	10650.570112203304	6
0	6460	10662.806103145823	5
0	6462	10662.915083201082	4
0	6464	10664.346538511403	3
0	6466	10667.789032917528	2
0	6468	10668.435148126868	3
0	6471	10669.657496469674	4
0	6474	10674.60551044013	3
0	6476	10678.940711598467	4
0	6479	10681.890428333094	3
0	6481	10682.965785032306	2
0	6483	10690.022968907599	3
0	6486	10690.534998451857	2
0	6488	10702.323710825782	3
0	6491	10704.86550252049	2
0	6493	10712.36544944568	3
0	6496	10719.703007066219	2
0	6498	10722.602866027346	3
0	6501	10731.475616312687	2
0	6503	10731.58973730187	3
0	6506	10741.101122794981	4
0	6509	10747.598773363392	3
0	6511	10749.999919518232	4
0	6514	10752.356808547008	5
0	6517	10771.506324793237	6
0	6520	10775.366668512404	7
0	6523	10776.639579014963	6
0	6525	10785.828653824936	5
0	6527	10786.723011853777	4
0	6529	10787.734479430086	3
0	6531	10792.009389326632	2
0	6533	10792.641564443625	3
0	6536	10801.970024221833	4
0	6539	10807.487374405749	5
0	6542	10812.888277053743	6
0	6545	10815.329931376412	7
0	6548	10816.464032716304	6
0	6550	10820.137914776371	7
0	6553	10826.290119687973	6
0	6555	10827.566621855662	7
0	6558	10832.042157358165	8
0	6560	10834.357981002618	7
0	6563	10836.415862938906	6
0	6565	10836.885696416372	5
0	6567	10839.584239690699	6
0	6570	10842.172681230191	7
0	6573	10844.068193189454	6
0	6575	10846.462349930292	7
0	6578	10848.170161134342	6
0	6580	10851.095408680633	7
0	6583	10854.812617602499	6
0	6585	10858.737358940205	5
0	6587	10861.645815968677	4
0	6589	10863.017964657132	3
0	6591	10866.424907096306	2
0	6593	10866.940359784956	3
0	6596	10880.470351540106	4
0	6599	10885.811379396338	3
0	6601	10902.591155797858	2
0	6603	10921.19859490087	3
0	6606	10922.282142603692	2
0	6608	10924.142047411897	1
0	6610	10932.720188751903	2
0	6613	10932.828618459903	3
0	6616	10936.167024103415	2
0	6618	10936.344116808325	1
0	6620	10943.664743249112	2
0	6623	10948.038558153825	3
0	6626	10949.502631967301	4
0	6629	10966.003085421455	3
0	6631	10967.203096390042	4
0	6634	10967.870814239252	3
0	6636	10968.988654945155	2
0	6638	10971.940726186341	3
0	6641	10982.988360555226	4
0	6644	10993.79152176204	5
0	6647	10996.27449522235	4
0	6649	10996.344911509234	5
0	6652	10996.392351373223	4
0	6654	10997.385449309917	5
0	6657	10997.442973825805	6
0	6660	11001.944831111335	5
0	6662	11002.342461334567	6
0	6665	11004.686970809412	5
0	6667	11005.762040732228	4
0	6669	11006.623140819572	3
0	6671	11009.332551908259	4
0	6674	11022.097652532583	3
0	6676	11026.110557392812	4
0	6679	11037.853740012389	3
0	6681	11039.760891438443	4
0	6684	11058.539990176459	5
0	6687	11063.421550039536	4
0	6689	11065.773857345122	3
0	6691	11069.75386353439	4
0	6694	11071.020258267175	5
0	6697	11077.120897579721	4
0	6699	11079.451751664452	3
0	6701	11088.047590156319	4
0	6704	11089.299267134687	5
0	6707	11089.555249335346	6
0	6710	11090.508558717387	7
0	6713	11092.426751363538	8
0	6715	11093.311964577031	7
0	6718	11094.458580576417	8
0	6720	11095.391946445878	7
0	6723	11095.817258164241	6
0	6725	11097.058852943676	5
0	6727	11098.394942991538	6
0	6730	11105.6134527257	5
0	6732	11111.246179620062	6
0	6735	11112.549080800688	7
0	6738	11113.478120631699	8
0	6740	11114.587787167636	7
0	6743	11116.067954609096	8
0	6745	11119.464404532711	9
0	6747	11120.096421756443	8
0	6750	11122.272952121214	7
0	6753	11122.57537917074	6
0	6755	11127.118814913424	5
0	6757	11140.176744883926	4
0	6759	11146.141652089786	5
0	6762	11148.236698048093	4
0	6764	11148.333841321108	5
0	6767	11156.473033967254	4
0	6769	11157.416396979318	3
0	6771	11158.754135279539	4
0	6774	11161.597118926086	3
0	6776	11176.195734577954	2
0	6778	11182.748747952398	3
0	6781	11184.009958522625	2
0	6783	11208.379552051455	3
0	6786	11210.440145496853	2
0	6788	11210.729054042031	3
0	6791	11215.894244916462	4
0	6794	11218.55775548869	3
0	6796	11225.046948538164	2
0	6798	11227.063970448405	3
0	6801	11228.037687972263	4
0	6804	11228.705992141763	5
0	6807	11230.167688785258	4
0	6809	11230.583884488311	5
0	6812	11239.371508147708	6
0	6815	11240.448088003739	5
0	6817	11241.893968811574	4
0	6819	11242.787664290381	3
0	6821	11246.257727525813	4
0	6824	11249.307862648538	5
0	6827	11251.027322770899	6
0	6830	11260.326973755753	5
0	6832	11260.544443070374	6
0	6835	11261.16300094106	5
0	6837	11273.942915412011	4
0	6839	11280.742808728085	5
0	6842	11293.479642132561	4
0	6844	11298.08038088691	3
0	6846	11300.301803118068	4
0	6849	11304.000930700465	5
0	6852	11305.239285670187	4
0	6854	11305.977924733141	5
0	6857	11306.267662660477	4
0	6859	11309.309231982626	3
0	6861	11312.434645816379	2
0	6863	11321.569147782883	1
0	6865	11331.068073181186	2
0	6868	11335.538064605223	1
0	6870	11342.378189625698	2
0	6873	11352.213292263011	3
0	6876	11353.409962226869	2
0	6878	11355.734921840809	1
0	6880	11363.893416011143	2
0	6883	11364.252109787395	3
0	6886	11366.083297685314	2
0	6888	11370.34699956934	3
0	6891	11370.58633296281	2
0	6893	11387.195223617099	1
0	6895	11389.085569757118	2
0	6898	11389.968124933122	3
0	6901	11398.215655320679	4
0	6904	11402.629873447569	5
0	6907	11411.822604349468	4
0	6909	11415.476351202132	5
0	6912	11415.619726478643	6
0	6915	11425.483595232303	5
0	6917	11430.007177000722	4
0	6919	11434.62556014352	5
0	6922	11437.352223019007	6
0	6925	11440.028611221756	5
0	6927	11440.897299247769	6
0	6930	11445.309379823733	5
0	6932	11448.342367112749	6
0	6935	11452.785160231188	7
0	6938	11454.367383641395	8
0	6940	11456.781186014835	7
0	6943	11460.834552404303	6
0	6945	11461.937498755361	7
0	6948	11462.687904520265	6
0	6950	11463.218895815863	7
0	6953	11463.224950173742	8
0	6955	11473.858056129832	7
0	6958	11477.568441288481	8
0	6960	11480.742188583869	7
0	6963	11483.645806987573	6
0	6965	11489.776485797875	7
0	6968	11489.883775606886	8
0	6970	11494.585591148203	7
0	6973	11496.174429716248	6
0	6975	11499.678493913693	5
0	6977	11512.789485912361	6
0	6980	11517.261798096406	5
0	6982	11518.349161502569	4
0	6984	11527.762742251886	5
0	6987	11566.377815740819	4
0	6989	11572.185626818895	3
0	6991	11580.528632174779	2
0	6993	11585.412323302071	3
0	6996	11586.206893773766	4
0	6999	11591.45334420422	3
0	7001	11599.289570225775	4
0	7004	11601.190674757378	5
0	7007	11601.878069286571	4
0	7009	11603.477210301211	3
0	7011	11609.87033721221	2
0	7013	11613.989960781064	3
0	7016	11624.242684458555	2
0	7018	11662.70339170815	3
0	7021	11670.675768804291	4
0	7024	11671.431017906492	5
0	7027	11682.316350571059	4
0	7029	11683.805303765395	3
0	7031	11693.252247957506	2
0	7033	11696.154548392566	3
0	7036	11696.400579814128	2
0	7038	11696.643412047597	3
0	7041	11699.678744597263	4
0	7044	11702.623594360911	5
0	7047	11704.054397914614	6
0	7050	11707.936721405943	7
0	7053	11710.18448271406	6
0	7055	11730.232964574011	5
0	7057	11733.988907236551	6
0	7060	11739.488852851212	5
0	7062	11740.121473905811	6
0	7065	11742.707523575681	7
0	7068	11744.793451982486	8
0	7070	11747.267006748813	9
0	7072	11751.623744020873	8
0	7075	11753.111280540175	7
0	7078	11762.216026611677	6
0	7080	11762.251657572632	7
0	7083	11767.052911880843	6
0	7085	11771.833975141125	7
0	7088	11777.201840067952	6
0	7090	11778.997104759153	5
0	7092	11784.651522021581	4
0	7094	11818.774101126068	3
0	7096	11827.324918515954	2
0	7098	11835.431400549189	3
0	7101	11837.177859030744	4
0	7104	11852.862877419858	3
0	7106	11853.379391609994	4
0	7109	11856.364607505404	5
0	7112	11864.087610854172	4
0	7114	11871.809245357583	3
0	7116	11873.086448724212	4
0	7119	11880.957872984001	3
0	7121	11884.587429595801	4
0	7124	11888.266981451458	3
0	7126	11891.872928669299	2
0	7128	11896.998466893219	3
0	7131	11898.355690139665	2
0	7133	11905.656853180046	3
0	7136	11907.142453043344	4
0	7139	11909.878520783431	3
0	7141	11910.334665222119	2
0	7143	11910.345406370874	3
0	7146	11913.314805583946	2
0	7148	11917.135087312671	3
0	7151	11919.236966717031	4
0	7154	11922.274691308295	5
0	7157	11928.574756688897	4
0	7159	11929.940523312479	3
0	7161	11931.901789797087	2
0	7163	11934.204259553456	1
0	7165	11957.71754155737	2
0	7168	11958.116668697373	1
0	7170	11960.594050251523	2
0	7173	11972.844736671611	1
0	7175	11973.45904719203	2
0	7178	11979.39068991771	3
0	7181	11985.212161920128	4
0	7184	11995.050174426316	5
0	7187	11999.827030661601	6
0	7190	12004.916128687502	5
0	7192	12010.283612249717	6
0	7195	12018.317861030184	7
0	7198	12025.044651338293	6
0	7200	12028.80188835089	7
0	7203	12030.482383519719	6
0	7205	12034.742175491044	5
0	7207	12038.640370852631	4
0	7209	12040.245117373703	5
0	7212	12043.025934848756	4
0	7214	12053.132059501012	3
0	7216	12060.582547746624	2
0	7218	12061.078509212346	3
0	7221	12069.545578847006	4
0	7224	12070.94075966327	3
0	7226	12076.49522873684	4
0	7229	12078.186205800976	5
0	7232	12080.777571398577	6
0	7235	12080.900693583585	5
0	7237	12082.844711944318	4
0	7239	12085.516760668458	5
0	7242	12086.364090830875	4
0	7244	12089.475305605303	5
0	7247	12090.526765487655	4
0	7249	12096.877813778669	5
0	7252	12100.664605409646	4
0	7254	12102.292139529314	5
0	7257	12113.781686405524	6
0	7260	12124.580753969087	7
0	7263	12128.226020234198	8
0	7265	12129.332846658898	9
0	7267	12132.552861738897	8
0	7270	12142.269183363549	7
0	7273	12143.293478220482	8
0	7275	12144.083023947285	7
0	7278	12144.203121460271	8
0	7280	12147.39731003221	9
0	7282	12155.284390113512	8
0	7285	12159.712028152332	7
0	7288	12160.774172217754	8
0	7290	12164.236339958995	9
0	7292	12165.984687852349	10
0	7294	12166.667799066463	11
0	7296	12174.597115200276	12
0	7298	12179.036131029911	13
0	7300	12180.809804231418	14
0	7302	12183.489385195309	13
0	7305	12183.503766639668	14
0	7307	12188.390018253347	13
0	7310	12189.706944161066	12
0	7313	12194.411597967372	11
0	7316	12196.769823478127	10
0	7319	12202.551832750794	11
0	7321	12203.024411689947	10
0	7324	12205.328202352809	9
0	7327	12210.129042755021	8
0	7330	12214.934374552791	9
0	7332	12217.017985922235	8
0	7335	12221.182414947833	7
0	7338	12223.620881177373	6
0	7340	12223.707207201983	7
0	7343	12234.954899396571	6
0	7345	12240.81888462445	7
0	7348	12244.299648562273	6
0	7350	12244.628770290342	5
0	7352	12257.813965600501	6
0	7355	12266.168094558761	7
0	7358	12267.094660113863	6
0	7360	12270.149432981985	7
0	7363	12280.29141236478	8
0	7365	12281.180561359796	7
0	7368	12281.303626052727	6
0	7370	12281.732775269451	5
0	7372	12292.124976388369	4
0	7374	12293.772258983923	3
0	7376	12302.622753411473	4
0	7379	12306.403135647352	3
0	7381	12315.945390512479	4
0	7384	12317.093223025643	5
0	7387	12317.335813905653	4
0	7389	12317.713122972818	3
0	7391	12322.139349610443	4
0	7394	12341.916391876039	5
0	7397	12347.711882606736	6
0	7400	12352.857374123907	7
0	7403	12353.740284163111	6
0	7405	12363.665413710952	5
0	7407	12365.415875557311	6
0	7410	12371.976839377149	5
0	7412	12378.148099479575	6
0	7415	12378.543225287885	7
0	7418	12384.122053504943	8
0	7420	12385.106868846357	9
0	7422	12386.276447337465	8
0	7425	12387.665761649325	9
0	7427	12394.986535016572	8
0	7430	12399.363746201806	7
0	7433	12400.941358871903	6
0	7435	12401.314532125622	7
0	7438	12407.185077289568	6
0	7440	12412.230208431517	7
0	7443	12412.608560647589	6
0	7445	12416.176264167961	5
0	7447	12421.817965148468	6
0	7450	12422.008386157538	7
0	7453	12423.34283605792	8
0	7455	12440.406127673912	9
0	7457	12441.055222690764	8
0	7460	12444.097610992604	7
0	7463	12444.321384241373	6
0	7465	12444.36492429465	5
0	7467	12450.365578524262	4
0	7469	12453.649756046789	5
0	7472	12453.711020012408	6
0	7475	12460.266169332438	5
0	7477	12466.189499507647	6
0	7480	12466.508385434458	5
0	7482	12469.13218357942	6
0	7485	12470.2613001057	5
0	7487	12473.204436754557	4
0	7489	12474.489597676271	3
0	7491	12475.870804344073	2
0	7493	12478.394717567228	1
0	7495	12483.284922243649	2
0	7498	12493.387651591069	1
0	7500	12501.946547084351	2
0	7503	12513.249972555071	3
0	7506	12513.28338172853	2
0	7508	12517.720984425237	3
0	7511	12518.169133585209	4
0	7514	12527.933416028094	3
0	7516	12529.952368137948	4
0	7519	12532.283745734483	3
0	7521	12537.042388341983	2
0	7523	12537.285638577692	3
0	7526	12541.296003303569	4
0	7529	12542.32961288529	5
0	7532	12546.622710408473	4
0	7534	12547.499910390847	5
0	7537	12552.134979697337	6
0	7540	12558.298197043382	5
0	7542	12562.686691430488	4
0	7544	12564.163584627787	5
0	7547	12569.168139692015	4
0	7549	12575.168042897051	3
0	7551	12579.505182030148	2
0	7553	12585.411001780602	3
0	7556	12588.864183199647	4
0	7559	12591.271227720673	3
0	7561	12595.434850081725	4
0	7564	12596.865144695207	5
0	7567	12601.901859063754	6
0	7570	12602.524418592385	7
0	7573	12602.706579529598	8
0	7575	12604.451016196118	9
0	7577	12607.918961960262	8
0	7580	12610.645664105337	7
0	7583	12617.034471806891	6
0	7585	12631.359445417228	7
0	7588	12642.365751064629	6
0	7590	12643.03549677258	7
0	7593	12649.696541893804	8
0	7595	12653.298899566317	7
0	7598	12654.488607822586	6
0	7600	12656.861581217831	7
0	7603	12663.519050003782	8
0	7605	12666.276529016783	7
0	7608	12668.413254029623	8
0	7610	12671.928384357564	7
0	7613	12673.519882584744	8
0	7615	12675.360155617311	9
0	7617	12686.250294349221	8
0	7620	12689.055966029082	7
0	7623	12692.972539405911	8
0	7625	12695.563549647632	7
0	7628	12703.420495666926	6
0	7630	12711.279942982455	5
0	7632	12713.464566195542	4
0	7634	12716.007383758175	5
0	7637	12718.179359550418	4
0	7639	12721.904789765859	5
0	7642	12722.880852081934	4
0	7644	12723.228203532856	5
0	7647	12728.136644362509	6
0	7650	12730.219952649768	5
0	7652	12744.635125266425	4
0	7654	12747.835802512135	3
0	7656	12748.372037332631	2
0	7658	12768.904073580707	3
0	7661	12773.0557877982	2
0	7663	12773.508342125291	3
0	7666	12776.672964164062	4
0	7669	12779.738614335658	3
0	7671	12784.524455106245	4
0	7674	12785.232314101631	3
0	7676	12787.889908947056	4
0	7679	12789.531142940709	3
0	7681	12792.733170421156	2
0	7683	12794.156806753925	3
0	7686	12795.384190150806	4
0	7689	12819.141083286819	3
0	7691	12822.201555526612	4
0	7694	12831.975510605208	3
0	7696	12844.781230666514	4
0	7699	12847.725856199744	3
0	7701	12848.89347406135	4
0	7704	12851.187975070598	3
0	7706	12863.114329318355	4
0	7709	12870.993569275238	5
0	7712	12873.587778179699	4
0	7714	12875.332548113269	5
0	7717	12875.712106945953	6
0	7720	12878.44067230111	5
0	7722	12888.361526699916	6
0	7725	12906.504661174209	7
0	7728	12909.520736467725	6
0	7730	12909.838186993839	5
0	7732	12912.087463495983	4
0	7734	12912.569133669697	3
0	7736	12914.303519971495	4
0	7739	12917.795262380035	3
0	7741	12923.175547947977	4
0	7744	12927.31481408605	5
0	7747	12927.384345615105	6
0	7750	12927.514541627928	5
0	7752	12927.766253050681	6
0	7755	12930.389425932421	5
0	7757	12931.263842601104	4
0	7759	12933.195064164316	3
0	7761	12934.620419789054	4
0	7764	12936.065880809804	5
0	7767	12943.14003015141	4
0	7769	12945.929036036176	3
0	7771	12946.545309017054	4
0	7774	12953.727442416464	5
0	7777	12957.550055513055	6
0	7780	12961.876628416109	7
0	7783	12965.865743041906	8
0	7785	12971.503866965424	9
0	7787	12972.323533506808	10
0	7789	12972.392684472804	9
0	7792	12974.184181297977	8
0	7795	12978.629105737874	7
0	7798	12979.783354176596	6
0	7800	12981.869978498282	5
0	7802	12986.373109134153	6
0	7805	12987.683742667043	7
0	7808	12994.571315994407	6
0	7810	12997.627141890859	5
0	7812	13006.860291518414	6
0	7815	13011.302259851699	5
0	7817	13017.75104832496	6
0	7820	13022.136424254735	7
0	7823	13023.291850008376	6
0	7825	13026.056878836777	5
0	7827	13029.378157114135	6
0	7830	13030.712623645172	5
0	7832	13037.593034739052	6
0	7835	13040.758276241329	7
0	7838	13042.689566504507	6
0	7840	13047.589818993218	5
0	7842	13057.680789650759	4
0	7844	13060.004491039165	3
0	7846	13068.46784461981	2
0	7848	13074.647039864007	3
0	7851	13075.696291447397	4
0	7854	13078.675047977023	5
0	7857	13091.269159498	4
0	7859	13093.823992807049	5
0	7862	13094.948602443808	4
0	7864	13095.845134965741	5
0	7867	13098.104480329307	4
0	7869	13098.877606974391	5
0	7872	13099.945889944741	4
0	7874	13108.833255864519	5
0	7877	13109.377356966149	6
0	7880	13117.465675343344	5
0	7882	13129.217032060674	6
0	7885	13129.397512380396	5
0	7887	13133.548802416526	6
0	7890	13138.353586611803	7
0	7893	13140.890253649495	8
0	7895	13146.449365537694	7
0	7898	13146.665175612575	8
0	7900	13148.476316553437	7
0	7903	13149.483767809268	8
0	7905	13150.456113898212	9
0	7907	13152.593362194489	8
0	7910	13160.174251787199	7
0	7913	13166.911377542259	8
0	7915	13172.287094711062	9
0	7917	13177.140321033765	8
0	7920	13180.483575664752	7
0	7923	13181.460368736727	8
0	7925	13187.677909573187	7
0	7928	13191.10962781148	6
0	7930	13193.589580113646	7
0	7933	13196.772768917828	6
0	7935	13196.917962914994	5
0	7937	13197.196538325051	6
0	7940	13201.929844004748	5
0	7942	13207.240155097215	6
0	7945	13207.722309804658	7
0	7948	13213.754264070218	6
0	7950	13216.278938604012	5
0	7952	13217.669711675943	6
0	7955	13220.89685824951	5
0	7957	13224.008128881557	4
0	7959	13224.075558953408	5
0	7962	13225.744973037025	4
0	7964	13228.131526161918	5
0	7967	13230.71786317992	6
0	7970	13238.287700995255	7
0	7973	13238.288963011328	6
0	7975	13238.72729564904	5
0	7977	13240.744301463569	4
0	7979	13253.069830925233	3
0	7981	13253.645830941584	4
[...]
1	6857	11306.267662660477	0
1	6859	11309.309231982626	0
1	6861	11312.434645816379	0
1	6863	11321.569147782883	0
1	6865	11331.068073181186	0
1	6868	11335.538064605223	0
1	6870	11342.378189625698	0
1	6873	11352.213292263011	0
1	6876	11353.409962226869	0
1	6878	11355.734921840809	0
1	6880	11363.893416011143	0
1	6883	11364.252109787395	0
1	6886	11366.083297685314	0
1	6888	11370.34699956934	0
1	6891	11370.58633296281	0
1	6893	11387.195223617099	0
1	6895	11389.085569757118	0
1	6898	11389.968124933122	0
1	6901	11398.215655320679	0
1	6904	11402.629873447569	0
1	6907	11411.822604349468	0
1	6909	11415.476351202132	0
1	6912	11415.619726478643	0
1	6915	11425.483595232303	0
1	6917	11430.007177000722	0
1	6919	11434.62556014352	0
1	6922	11437.352223019007	0
1	6925	11440.028611221756	0
1	6927	11440.897299247769	0
1	6930	11445.309379823733	0
1	6932	11448.342367112749	0
1	6935	11452.785160231188	0
1	6938	11454.367383641395	1
1	6940	11456.781186014835	0
1	6943	11460.834552404303	0
1	6945	11461.937498755361	0
1	6948	11462.687904520265	0
1	6950	11463.218895815863	0
1	6953	11463.224950173742	1
1	6955	11473.858056129832	0
1	6958	11477.568441288481	1
1	6960	11480.742188583869	0
1	6963	11483.645806987573	0
1	6965	11489.776485797875	0
1	6968	11489.883775606886	1
1	6970	11494.585591148203	0
1	6973	11496.174429716248	0
1	6975	11499.678493913693	0
1	6977	11512.789485912361	0
1	6980	11517.261798096406	0
1	6982	11518.349161502569	0
1	6984	11527.762742251886	0
1	6987	11566.377815740819	0
1	6989	11572.185626818895	0
1	6991	11580.528632174779	0
1	6993	11585.412323302071	0
1	6996	11586.206893773766	0
1	6999	11591.45334420422	0
1	7001	11599.289570225775	0
1	7004	11601.190674757378	0
1	7007	11601.878069286571	0
1	7009	11603.477210301211	0
1	7011	11609.87033721221	0
1	7013	11613.989960781064	0
1	7016	11624.242684458555	0
1	7018	11662.70339170815	0
1	7021	11670.675768804291	0
1	7024	11671.431017906492	0
1	7027	11682.316350571059	0
1	7029	11683.805303765395	0
1	7031	11693.252247957506	0
1	7033	11696.154548392566	0
1	7036	11696.400579814128	0
1	7038	11696.643412047597	0
1	7041	11699.678744597263	0
1	7044	11702.623594360911	0
1	7047	11704.054397914614	0
1	7050	11707.936721405943	0
1	7053	11710.18448271406	0
1	7055	11730.232964574011	0
1	7057	11733.988907236551	0
1	7060	11739.488852851212	0
1	7062	11740.121473905811	0
1	7065	11742.707523575681	0
1	7068	11744.793451982486	1
1	7070	11747.267006748813	2
1	7072	11751.623744020873	1
1	7075	11753.111280540175	0
1	7078	11762.216026611677	0
1	7080	11762.251657572632	0
1	7083	11767.052911880843	0
1	7085	11771.833975141125	0
1	7088	11777.201840067952	0
1	7090	11778.997104759153	0
1	7092	11784.651522021581	0
1	7094	11818.774101126068	0
1	7096	11827.324918515954	0
1	7098	11835.431400549189	0
1	7101	11837.177859030744	0
1	7104	11852.862877419858	0
1	7106	11853.379391609994	0
1	7109	11856.364607505404	0
1	7112	11864.087610854172	0
1	7114	11871.809245357583	0
1	7116	11873.086448724212	0
1	7119	11880.957872984001	0
1	7121	11884.587429595801	0
1	7124	11888.266981451458	0
1	7126	11891.872928669299	0
1	7128	11896.998466893219	0
1	7131	11898.355690139665	0
1	7133	11905.656853180046	0
1	7136	11907.142453043344	0
1	7139	11909.878520783431	0
1	7141	11910.334665222119	0
1	7143	11910.345406370874	0
1	7146	11913.314805583946	0
1	7148	11917.135087312671	0
1	7151	11919.236966717031	0
1	7154	11922.274691308295	0
1	7157	11928.574756688897	0
1	7159	11929.940523312479	0
1	7161	11931.901789797087	0
1	7163	11934.204259553456	0
1	7165	11957.71754155737	0
1	7168	11958.116668697373	0
1	7170	11960.594050251523	0
1	7173	11972.844736671611	0
1	7175	11973.45904719203	0
1	7178	11979.39068991771	0
1	7181	11985.212161920128	0
1	7184	11995.050174426316	0
1	7187	11999.827030661601	0
1	7190	12004.916128687502	0
1	7192	12010.283612249717	0
1	7195	12018.317861030184	0
1	7198	12025.044651338293	0
1	7200	12028.80188835089	0
1	7203	12030.482383519719	0
1	7205	12034.742175491044	0
1	7207	12038.640370852631	0
1	7209	12040.245117373703	0
1	7212	12043.025934848756	0
1	7214	12053.132059501012	0
1	7216	12060.582547746624	0
1	7218	12061.078509212346	0
1	7221	12069.545578847006	0
1	7224	12070.94075966327	0
1	7226	12076.49522873684	0
1	7229	12078.186205800976	0
1	7232	12080.777571398577	0
1	7235	12080.900693583585	0
1	7237	12082.844711944318	0
1	7239	12085.516760668458	0
1	7242	12086.364090830875	0
1	7244	12089.475305605303	0
1	7247	12090.526765487655	0
1	7249	12096.877813778669	0
1	7252	12100.664605409646	0
1	7254	12102.292139529314	0
1	7257	12113.781686405524	0
1	7260	12124.580753969087	0
1	7263	12128.226020234198	1
1	7265	12129.332846658898	2
1	7267	12132.552861738897	1
1	7270	12142.269183363549	0
1	7273	12143.293478220482	1
1	7275	12144.083023947285	0
1	7278	12144.203121460271	1
1	7280	12147.39731003221	2
1	7282	12155.284390113512	1
1	7285	12159.712028152332	0
1	7288	12160.774172217754	1
1	7290	12164.236339958995	2
1	7292	12165.984687852349	3
1	7294	12166.667799066463	4
1	7296	12174.597115200276	5
1	7298	12179.036131029911	6
1	7300	12180.809804231418	7
1	7302	12183.489385195309	6
1	7305	12183.503766639668	7
1	7307	12188.390018253347	6
1	7310	12189.706944161066	5
1	7313	12194.411597967372	4
1	7316	12196.769823478127	3
1	7319	12202.551832750794	4
1	7321	12203.024411689947	3
1	7324	12205.328202352809	2
1	7327	12210.129042755021	1
1	7330	12214.934374552791	2
1	7332	12217.017985922235	1
1	7335	12221.182414947833	0
1	7338	12223.620881177373	0
1	7340	12223.707207201983	0
1	7343	12234.954899396571	0
1	7345	12240.81888462445	0
1	7348	12244.299648562273	0
1	7350	12244.628770290342	0
1	7352	12257.813965600501	0
1	7355	12266.168094558761	0
1	7358	12267.094660113863	0
1	7360	12270.149432981985	0
1	7363	12280.29141236478	1
1	7365	12281.180561359796	0
1	7368	12281.303626052727	0
1	7370	12281.732775269451	0
1	7372	12292.124976388369	0
1	7374	12293.772258983923	0
1	7376	12302.622753411473	0
1	7379	12306.403135647352	0
1	7381	12315.945390512479	0
1	7384	12317.093223025643	0
1	7387	12317.335813905653	0
1	7389	12317.713122972818	0
1	7391	12322.139349610443	0
1	7394	12341.916391876039	0
1	7397	12347.711882606736	0
1	7400	12352.857374123907	0
1	7403	12353.740284163111	0
1	7405	12363.665413710952	0
1	7407	12365.415875557311	0
1	7410	12371.976839377149	0
1	7412	12378.148099479575	0
1	7415	12378.543225287885	0
1	7418	12384.122053504943	1
1	7420	12385.106868846357	2
1	7422	12386.276447337465	1
1	7425	12387.665761649325	2
1	7427	12394.986535016572	1
1	7430	12399.363746201806	0
1	7433	12400.941358871903	0
1	7435	12401.314532125622	0
1	7438	12407.185077289568	0
1	7440	12412.230208431517	0
1	7443	12412.608560647589	0
1	7445	12416.176264167961	0
1	7447	12421.817965148468	0
1	7450	12422.008386157538	0
1	7453	12423.34283605792	1
1	7455	12440.406127673912	2
1	7457	12441.055222690764	1
1	7460	12444.097610992604	0
1	7463	12444.321384241373	0
1	7465	12444.36492429465	0
1	7467	12450.365578524262	0
1	7469	12453.649756046789	0
1	7472	12453.711020012408	0
1	7475	12460.266169332438	0
1	7477	12466.189499507647	0
1	7480	12466.508385434458	0
1	7482	12469.13218357942	0
1	7485	12470.2613001057	0
1	7487	12473.204436754557	0
1	7489	12474.489597676271	0
1	7491	12475.870804344073	0
1	7493	12478.394717567228	0
1	7495	12483.284922243649	0
1	7498	12493.387651591069	0
1	7500	12501.946547084351	0
1	7503	12513.249972555071	0
1	7506	12513.28338172853	0
1	7508	12517.720984425237	0
1	7511	12518.169133585209	0
1	7514	12527.933416028094	0
1	7516	12529.952368137948	0
1	7519	12532.283745734483	0
1	7521	12537.042388341983	0
1	7523	12537.285638577692	0
1	7526	12541.296003303569	0
1	7529	12542.32961288529	0
1	7532	12546.622710408473	0
1	7534	12547.499910390847	0
1	7537	12552.134979697337	0
1	7540	12558.298197043382	0
1	7542	12562.686691430488	0
1	7544	12564.163584627787	0
1	7547	12569.168139692015	0
1	7549	12575.168042897051	0
1	7551	12579.505182030148	0
1	7553	12585.411001780602	0
1	7556	12588.864183199647	0
1	7559	12591.271227720673	0
1	7561	12595.434850081725	0
1	7564	12596.865144695207	0
1	7567	12601.901859063754	0
1	7570	12602.524418592385	0
1	7573	12602.706579529598	1
1	7575	12604.451016196118	2
1	7577	12607.918961960262	1
1	7580	12610.645664105337	0
1	7583	12617.034471806891	0
1	7585	12631.359445417228	0
1	7588	12642.365751064629	0
1	7590	12643.03549677258	0
1	7593	12649.696541893804	1
1	7595	12653.298899566317	0
1	7598	12654.488607822586	0
1	7600	12656.861581217831	0
1	7603	12663.519050003782	1
1	7605	12666.276529016783	0
1	7608	12668.413254029623	1
1	7610	12671.928384357564	0
1	7613	12673.519882584744	1
1	7615	12675.360155617311	2
1	7617	12686.250294349221	1
1	7620	12689.055966029082	0
1	7623	12692.972539405911	1
1	7625	12695.563549647632	0
1	7628	12703.420495666926	0
1	7630	12711.279942982455	0
1	7632	12713.464566195542	0
1	7634	12716.007383758175	0
1	7637	12718.179359550418	0
1	7639	12721.904789765859	0
1	7642	12722.880852081934	0
1	7644	12723.228203532856	0
1	7647	12728.136644362509	0
1	7650	12730.219952649768	0
1	7652	12744.635125266425	0
1	7654	12747.835802512135	0
1	7656	12748.372037332631	0
1	7658	12768.904073580707	0
1	7661	12773.0557877982	0
1	7663	12773.508342125291	0
1	7666	12776.672964164062	0
1	7669	12779.738614335658	0
1	7671	12784.524455106245	0
1	7674	12785.232314101631	0
1	7676	12787.889908947056	0
1	7679	12789.531142940709	0
1	7681	12792.733170421156	0
1	7683	12794.156806753925	0
1	7686	12795.384190150806	0
1	7689	12819.141083286819	0
1	7691	12822.201555526612	0
1	7694	12831.975510605208	0
1	7696	12844.781230666514	0
1	7699	12847.725856199744	0
1	7701	12848.89347406135	0
1	7704	12851.187975070598	0
1	7706	12863.114329318355	0
1	7709	12870.993569275238	0
1	7712	12873.587778179699	0
1	7714	12875.332548113269	0
1	7717	12875.712106945953	0
1	7720	12878.44067230111	0
1	7722	12888.361526699916	0
1	7725	12906.504661174209	0
1	7728	12909.520736467725	0
1	7730	12909.838186993839	0
1	7732	12912.087463495983	0
1	7734	12912.569133669697	0
1	7736	12914.303519971495	0
1	7739	12917.795262380035	0
1	7741	12923.175547947977	0
1	7744	12927.31481408605	0
1	7747	12927.384345615105	0
1	7750	12927.514541627928	0
1	7752	12927.766253050681	0
1	7755	12930.389425932421	0
1	7757	12931.263842601104	0
1	7759	12933.195064164316	0
1	7761	12934.620419789054	0
1	7764	12936.065880809804	0
1	7767	12943.14003015141	0
1	7769	12945.929036036176	0
1	7771	12946.545309017054	0
1	7774	12953.727442416464	0
1	7777	12957.550055513055	0
1	7780	12961.876628416109	0
1	7783	12965.865743041906	1
1	7785	12971.503866965424	2
1	7787	12972.323533506808	3
1	7789	12972.392684472804	2
1	7792	12974.184181297977	1
1	7795	12978.629105737874	0
1	7798	12979.783354176596	0
1	7800	12981.869978498282	0
1	7802	12986.373109134153	0
1	7805	12987.683742667043	0
1	7808	12994.571315994407	0
1	7810	12997.627141890859	0
1	7812	13006.860291518414	0
1	7815	13011.302259851699	0
1	7817	13017.75104832496	0
1	7820	13022.136424254735	0
1	7823	13023.291850008376	0
1	7825	13026.056878836777	0
1	7827	13029.378157114135	0
1	7830	13030.712623645172	0
1	7832	13037.593034739052	0
1	7835	13040.758276241329	0
1	7838	13042.689566504507	0
1	7840	13047.589818993218	0
1	7842	13057.680789650759	0
1	7844	13060.004491039165	0
1	7846	13068.46784461981	0
1	7848	13074.647039864007	0
1	7851	13075.696291447397	0
1	7854	13078.675047977023	0
1	7857	13091.269159498	0
1	7859	13093.823992807049	0
1	7862	13094.948602443808	0
1	7864	13095.845134965741	0
1	7867	13098.104480329307	0
1	7869	13098.877606974391	0
1	7872	13099.945889944741	0
1	7874	13108.833255864519	0
1	7877	13109.377356966149	0
1	7880	13117.465675343344	0
1	7882	13129.217032060674	0
1	7885	13129.397512380396	0
1	7887	13133.548802416526	0
1	7890	13138.353586611803	0
1	7893	13140.890253649495	1
1	7895	13146.449365537694	0
1	7898	13146.665175612575	1
1	7900	13148.476316553437	0
1	7903	13149.483767809268	1
1	7905	13150.456113898212	2
1	7907	13152.593362194489	1
1	7910	13160.174251787199	0
1	7913	13166.911377542259	1
1	7915	13172.287094711062	2
1	7917	13177.140321033765	1
1	7920	13180.483575664752	0
1	7923	13181.460368736727	1
1	7925	13187.677909573187	0
1	7928	13191.10962781148	0
1	7930	13193.589580113646	0
1	7933	13196.772768917828	0
1	7935	13196.917962914994	0
1	7937	13197.196538325051	0
1	7940	13201.929844004748	0
1	7942	13207.240155097215	0
1	7945	13207.722309804658	0
1	7948	13213.754264070218	0
1	7950	13216.278938604012	0
1	7952	13217.669711675943	0
1	7955	13220.89685824951	0
1	7957	13224.008128881557	0
1	7959	13224.075558953408	0
1	7962	13225.744973037025	0
1	7964	13228.131526161918	0
1	7967	13230.71786317992	0
1	7970	13238.287700995255	0
1	7973	13238.288963011328	0
1	7975	13238.72729564904	0
1	7977	13240.744301463569	0
1	7979	13253.069830925233	0
1	7981	13253.645830941584	0
1	7984	13254.640112055739	0
1	7986	13260.850774166053	0
1	7989	13264.857678700723	0
1	7992	13265.119060137474	0
1	7994	13266.299406323971	0
1	7996	13272.861691390827	0
1	7999	13279.369054815126	0
1	8002	13283.991997528327	0
1	8005	13288.190869469231	0
1	8008	13304.14333544572	0
1	8010	13304.344150745375	0
1	8013	13305.784705751164	0
1	8015	13309.483268913895	0
1	8018	13310.643638322211	1
1	8020	13310.679202508648	2
1	8022	13312.07059323622	1
1	8025	13315.192575524742	0
1	8028	13318.274550485141	0
1	8030	13324.089155575371	0
1	8033	13324.926703039446	1
1	8035	13331.232177337066	0
1	8038	13334.751295201892	0
1	8040	13337.03365201213	0
1	8043	13344.262701194263	0
1	8045	13344.549048695742	0
1	8048	13347.780838917411	0
1	8050	13351.84369628104	0
1	8053	13352.315672798075	0
1	8055	13353.331531412881	0
1	8057	13364.769222638451	0
1	8060	13365.465860336955	0
1	8062	13369.549043842507	0
1	8065	13373.868389190824	0
1	8067	13377.304420216747	0
1	8069	13379.044519721833	0
1	8071	13384.957526633341	0
1	8074	13403.032340980517	0
1	8077	13404.923610666326	0
1	8079	13413.966293980575	0
1	8081	13415.121742929184	0
1	8083	13417.733693031372	0
1	8086	13422.825315894337	0
1	8088	13441.627595065905	0
1	8090	13442.586884226347	0
1	8093	13445.435380268902	0
1	8096	13456.94992304253	0
1	8099	13457.645883256446	0
1	8102	13466.678848999249	0
1	8104	13472.324977878409	0
1	8107	13472.830213048624	0
1	8109	13472.87687850868	0
1	8111	13479.233120438785	0
1	8114	13480.575821164843	0
1	8116	13483.606767670368	0
1	8118	13495.81987591206	0
1	8121	13497.13063031888	0
1	8124	13497.556895516124	0
1	8126	13503.316134162248	0
1	8129	13505.050420039685	0
1	8132	13510.274584476785	0
1	8134	13519.222848495178	0
1	8137	13523.659556902687	0
1	8139	13526.582990706419	0
1	8142	13527.675481611373	0
1	8144	13539.638427208197	0
1	8146	13547.016418568105	0
1	8149	13552.874336740345	0
1	8152	13553.366295123282	0
1	8155	13559.481438290419	0
1	8157	13563.656158000564	0
1	8159	13564.891076606271	0
1	8161	13567.379125853842	0
1	8164	13567.482600794485	0
1	8166	13568.900780852881	0
1	8168	13587.22723721191	0
1	8171	13592.020922104059	0
1	8174	13597.140737668724	0
1	8176	13597.63564667064	0
1	8179	13602.116773562034	0
1	8182	13602.9755614847	0
1	8185	13603.351445720178	0
1	8187	13607.157446496024	0
1	8190	13607.433366777642	0
1	8192	13608.244546897716	0
1	8195	13612.470145862522	0
1	8198	13622.228588496974	0
1	8200	13624.381714915436	0
1	8202	13635.182195209073	0
1	8205	13636.549595716094	0
1	8208	13638.152081719251	1
1	8210	13639.629888109798	0
1	8213	13639.910516740076	0
1	8215	13646.299066512229	0
1	8217	13649.081117215189	0
1	8219	13652.26044026009	0
1	8222	13656.91052785349	0
1	8225	13660.714540997486	0
1	8228	13662.989254964397	1
1	8230	13663.076678552107	0
1	8233	13664.574659147393	1
1	8235	13665.869105654677	0
1	8238	13674.226065468452	1
1	8240	13675.457123359354	2
1	8242	13682.963032273941	1
1	8245	13686.227934669957	2
1	8247	13691.809774869842	1
1	8250	13705.08406187908	2
1	8252	13706.750130633116	3
1	8254	13712.332797792817	2
1	8257	13712.561380562764	1
1	8260	13712.689070052354	0
1	8263	13717.554513007233	0
1	8265	13717.984558893858	0
1	8267	13723.484374797334	0
1	8270	13724.269908249536	0
1	8273	13726.615037336777	1
1	8275	13727.590806942842	2
1	8277	13728.190550210974	1
1	8280	13733.42869846745	0
1	8283	13734.101254121828	0
1	8285	13736.105020288527	0
1	8288	13741.696429594491	0
1	8290	13743.409890257852	0
1	8292	13753.855992406517	0
1	8295	13758.151244898549	0
1	8297	13768.333974064928	0
1	8299	13771.723351264489	0
1	8302	13771.821708421726	0
1	8305	13776.41829035164	0
1	8308	13779.819996510148	0
1	8310	13784.2345427734	0
1	8312	13788.858920080083	0
1	8315	13789.393876460257	0
1	8318	13793.516456082579	0
1	8320	13793.631231685325	0
1	8323	13794.582562874881	0
1	8325	13804.022644362589	0
1	8327	13806.107236727737	0
1	8329	13811.736835614992	0
1	8332	13820.51723814418	0
1	8335	13825.51544612876	0
1	8337	13826.526229927831	0
1	8339	13833.162334515552	0
1	8341	13833.286028728477	0
1	8343	13834.654210902977	0
1	8345	13834.864514486213	0
1	8348	13837.492680906214	0
1	8351	13857.993944934	0
1	8354	13870.718636783674	0
1	8357	13876.649919198959	0
1	8359	13879.632743549973	0
1	8362	13884.624264477157	0
1	8364	13887.393473290914	0
1	8367	13892.275103607198	0
1	8370	13893.338146955103	0
1	8373	13895.128564169712	0
1	8375	13899.519027986298	0
1	8378	13901.70675864822	1
1	8380	13923.970595371758	2
1	8382	13924.146797535405	1
1	8385	13925.746653053662	0
1	8388	13934.393879275887	0
1	8390	13946.017926473169	0
1	8393	13954.716865933271	0
1	8395	13962.9676951568	0
1	8398	13963.502088673482	0
1	8400	13965.557559892734	0
1	8402	13969.449140006322	0
1	8404	13970.485741244023	0
1	8407	13971.766496848175	0
1	8409	13978.375434784137	0
1	8411	13979.070071901186	0
1	8414	13981.26411523411	0
1	8417	13987.623222041886	0
1	8419	13989.669704310605	0
1	8421	14007.64962656969	0
1	8424	14009.136241658294	0
1	8426	14012.912817747474	0
1	8428	14013.781349967814	0
1	8431	14014.043356199949	0
1	8433	14028.698878150635	0
1	8436	14029.903406927624	0
1	8439	14031.947772495591	0
1	8441	14035.247384496807	0
1	8443	14035.724132778368	0
1	8445	14035.813933355821	0
1	8448	14073.805803941807	0
1	8451	14074.515890869787	0
1	8453	14078.014514408301	0
1	8456	14084.966854706561	0
1	8459	14085.234012133202	0
1	8461	14093.310681133438	0
1	8463	14093.875359128471	0
1	8466	14095.45292955195	0
1	8468	14112.112076555869	0
1	8471	14116.209129023668	0
1	8474	14125.094985613784	0
1	8477	14130.106867879881	0
1	8479	14130.914073480185	0
1	8482	14137.888380644218	0
1	8484	14138.101462193229	0
1	8487	14140.168924916147	0
1	8490	14142.213405917375	0
1	8492	14143.655548085903	0
1	8495	14150.235974073927	0
1	8498	14151.281431338373	1
1	8500	14157.403562461182	2
1	8502	14158.754889902244	1
1	8505	14159.791124043541	0
1	8508	14161.217729266788	0
1	8510	14161.793841229985	0
1	8513	14172.998251923847	0
1	8515	14178.738535981898	0
1	8518	14179.823967456817	1
1	8520	14187.686291059814	0
1	8523	14190.948511289546	1
1	8525	14191.926803281588	0
1	8528	14193.684754533923	0
1	8530	14204.249196588943	0
1	8532	14206.777479947991	0
1	8535	14208.193448469434	0
1	8537	14208.24404883791	0
1	8540	14208.529007288144	0
1	8542	14215.745475659484	0
1	8544	14216.669307042881	0
1	8547	14220.224826491028	0
1	8549	14221.1301532312	0
1	8551	14229.109682710246	0
1	8554	14238.584863282841	0
1	8557	14239.556636682983	0
1	8559	14240.380440578539	0
1	8562	14249.571853010864	0
1	8565	14250.029704458722	0
1	8567	14252.568654087633	0
1	8570	14253.661873126756	0
1	8573	14258.155827779758	0
1	8575	14260.72060714238	0
1	8577	14270.415900134711	0
1	8579	14272.81397659906	0
1	8582	14274.905185434832	0
1	8584	14278.809240879942	0
1	8587	14279.692001089409	0
1	8589	14283.209111903351	0
1	8591	14286.234557744857	0
1	8594	14287.716759068471	0
1	8596	14289.236936277857	0
1	8598	14289.634634187438	0
1	8600	14297.498244653568	0
1	8603	14302.382316663264	0
1	8605	14307.097819902516	0
1	8608	14325.62694493599	0
1	8611	14326.55642010828	0
1	8614	14341.383109636754	0
1	8616	14350.190060116533	0
1	8619	14355.225338756149	0
1	8621	14379.415528240299	0
1	8624	14379.992581756195	0
1	8626	14380.349334006056	0
1	8629	14381.349163341328	0
1	8632	14389.095322469093	0
1	8635	14391.209807698159	0
1	8637	14395.173084747217	0
1	8639	14397.745781488159	0
1	8642	14399.72602087343	0
1	8645	14399.755103628432	0

