version 2
run General-9-20191211-23:49:40-6374
attr configname General
attr datetime 20191211-23:49:40
attr experiment General
attr inifile omnetpp.ini
attr iterationvars ""
attr iterationvarsf ""
attr measurement ""
attr network Carrefour
attr processid 6374
attr repetition 9
attr replication #9
attr resultdir results
attr runnumber 9
attr seedset 9
param **.tillsNumber 7
param **.delta 0s
param **.policy 1
param **.capacity 0.3
param **.meanInterArrivalTime 8s
param **.meanItemsInACart 12
param **.interArrivalDistribution 0
param **.itemsInCartDistribution 0

vector 0 Carrefour.decider stats_numCustomers:vector ETV
attr "" ""
attr source numCustomers
vector 1 Carrefour.decider stats_numCustomersQueue:vector ETV
attr "" ""
attr source numCustomersQueue
0	721	1205.802918872699	2
0	723	1207.420733653239	3
0	726	1209.390857002047	4
0	729	1212.177512738067	3
0	731	1213.731387176453	4
0	734	1217.428645214421	3
0	736	1222.438053433722	4
0	739	1225.981735165014	3
0	741	1227.607299559477	4
0	744	1231.509890823222	3
0	746	1234.775745019518	4
0	749	1235.941814287211	5
0	752	1241.520258702542	6
0	755	1245.118640517033	7
0	758	1247.301314604663	6
0	760	1254.743199178357	5
0	762	1258.17738877248	4
0	764	1258.931298611747	5
0	767	1262.089443018209	6
0	770	1262.668122212397	5
0	772	1263.982555554935	6
0	775	1265.264073092153	7
0	778	1266.094478021065	6
0	780	1267.491295101853	7
0	783	1280.203896250094	8
0	785	1287.935454951985	7
0	788	1308.290267245261	8
0	790	1314.216239218372	9
0	792	1319.701544350953	8
0	795	1322.796015741354	9
0	797	1325.42943972144	8
0	800	1338.659395892333	7
0	803	1340.763711813184	8
0	805	1341.763104404139	7
0	808	1345.14262064874	6
0	810	1350.167231739891	7
0	813	1362.001822328917	6
0	815	1362.822425437434	7
0	818	1370.663461984096	6
0	820	1383.361685072801	5
0	822	1385.9961328517	4
0	824	1388.275555942543	3
0	826	1392.650699841649	2
0	828	1398.394766759395	3
0	831	1406.33481086019	4
0	834	1417.247351578665	5
0	837	1417.803241141012	6
0	840	1419.464388646379	5
0	842	1424.525964816332	6
0	845	1433.667886466849	5
0	847	1436.907817629675	6
0	850	1442.20961046604	7
0	853	1446.020051114186	8
0	855	1448.792075633763	9
0	857	1451.870013217947	8
0	860	1453.697625774791	7
0	863	1453.880501794821	8
0	865	1454.79507756418	7
0	868	1458.869148618379	6
0	870	1459.291743139891	7
0	873	1459.950979595119	8
0	875	1461.106291200796	7
0	878	1467.257503633189	8
0	880	1468.589874717054	9
0	882	1469.95652060215	8
0	885	1470.834952005001	7
0	888	1474.575506638236	6
0	890	1484.209263005258	5
0	892	1487.880383470335	4
0	894	1488.340605211983	5
0	897	1489.476860287553	4
0	899	1492.128640922787	5
0	902	1493.626866645054	6
0	905	1495.532645922727	5
0	907	1497.088571639169	6
0	910	1501.327404660158	7
0	913	1501.716768827955	8
0	915	1506.832829861403	7
0	918	1512.771990260425	6
0	920	1513.311256014552	5
0	922	1522.736920500544	6
0	925	1523.26632104667	5
0	927	1524.90430876949	6
0	930	1525.351317770793	5
0	932	1527.816669385086	6
0	935	1528.191003515514	5
0	937	1529.566346008864	6
0	940	1531.090546586069	5
0	942	1533.719475874768	4
0	944	1534.590451138982	5
0	947	1538.49840764959	6
0	950	1541.514592644645	5
0	952	1543.810585007272	4
0	954	1544.042323728264	5
0	957	1547.134091113244	4
0	959	1557.602541746217	3
0	961	1558.398387807394	4
0	964	1570.587761751992	5
0	967	1582.519091191779	6
0	970	1582.601807716377	7
0	973	1589.804119985958	6
0	975	1595.619944348521	7
0	978	1598.8969188086	6
0	980	1599.517676440649	5
0	982	1602.454204063158	6
0	985	1604.154630533029	7
0	988	1605.879821259505	6
0	990	1607.029005296993	5
0	992	1607.761479041777	4
0	994	1616.386885515337	5
0	997	1624.987479236716	6
0	1000	1639.969961442026	5
0	1002	1647.43796883947	6
0	1005	1650.792429326379	5
0	1007	1653.588957407865	6
0	1010	1654.71964185586	5
0	1012	1657.537887176432	4
0	1014	1663.136394861773	3
0	1016	1664.115600801895	4
0	1019	1669.286113749543	5
0	1022	1680.319949318491	4
0	1024	1685.164781668779	3
0	1026	1696.026210826766	4
0	1029	1699.057486222794	3
0	1031	1704.365363490914	4
0	1034	1706.531700109197	5
0	1037	1711.516205929146	4
0	1039	1711.891337450709	5
0	1042	1713.431203022398	6
0	1045	1715.293891521978	5
0	1047	1719.145955922796	4
0	1049	1719.632051874102	5
0	1052	1732.803803839592	6
0	1055	1741.061245632267	5
0	1057	1752.921405891046	6
0	1060	1754.269499908275	7
0	1063	1759.133425718803	8
0	1065	1765.698174548049	7
0	1068	1771.947965712165	8
0	1070	1777.143509436352	7
0	1073	1780.049111630332	8
0	1075	1793.748901750754	7
0	1078	1794.224814204976	6
0	1080	1807.024357086193	7
0	1083	1814.422159968508	8
0	1085	1816.81434503358	9
0	1087	1819.183858351098	10
0	1089	1822.63246205579	11
0	1091	1832.017587229941	10
0	1094	1834.022061792144	11
0	1096	1835.11434412946	10
0	1099	1838.068608335368	9
0	1102	1838.375693670424	10
0	1104	1841.393442409173	9
0	1107	1843.468844291435	8
0	1110	1843.652222126983	7
0	1113	1844.606816565549	8
0	1115	1846.974913809066	7
0	1118	1853.453810420719	8
0	1120	1855.149625778451	7
0	1123	1856.21000862725	8
0	1125	1858.519332686567	7
0	1128	1858.610214251508	6
0	1130	1858.822430554782	7
0	1133	1858.901679497911	6
0	1135	1867.678244264984	5
0	1137	1870.552126407094	4
0	1139	1873.349090696439	3
0	1141	1874.967289736947	4
0	1144	1881.14309295994	5
0	1147	1881.236833100403	6
0	1150	1881.958820098533	7
0	1153	1882.562520844662	6
0	1155	1884.734739884325	7
0	1158	1887.27056504486	6
0	1160	1889.852512288293	5
0	1162	1900.42056132207	6
0	1165	1906.401748184464	5
0	1167	1910.863254543047	4
0	1169	1930.42727323255	3
0	1171	1936.414854836247	4
0	1174	1938.201946880184	5
0	1177	1943.51460099871	6
0	1180	1950.69063432471	7
0	1183	1957.707586267013	8
0	1185	1968.760262226455	7
0	1188	1976.297485158066	8
0	1190	1976.444133548402	9
0	1192	1978.29383558665	8
0	1195	1980.157533260686	9
0	1197	1987.986161763073	8
0	1200	1997.859737384971	9
0	1202	2000.98282988136	8
0	1205	2011.050332688857	7
0	1208	2014.285188142609	6
0	1210	2019.489036239745	7
0	1213	2020.523708137315	8
0	1215	2022.669133561193	7
0	1218	2028.358647344525	6
0	1220	2031.761662461295	5
0	1222	2033.082762150959	6
0	1225	2036.648562994727	5
0	1227	2036.995226997742	4
0	1229	2041.17060136438	5
0	1232	2043.534626577947	6
0	1235	2045.423952326846	5
0	1237	2057.399377261043	4
0	1239	2058.591702826032	3
0	1241	2060.917931668034	4
0	1244	2061.753469220592	3
0	1246	2064.529851578569	2
0	1248	2064.933287740113	1
0	1250	2071.922694729431	2
0	1253	2073.22968149412	3
0	1256	2076.894903253782	2
0	1258	2077.599035626162	3
0	1261	2081.615642260506	4
0	1264	2093.094804982547	5
0	1267	2099.463726371928	6
0	1270	2103.963599790918	5
0	1272	2105.522788685508	4
0	1274	2110.992449249564	5
0	1277	2112.681572004197	4
0	1279	2112.77461560076	3
0	1281	2112.924808680952	2
0	1283	2113.32106933274	1
0	1285	2116.108884709234	2
0	1288	2117.321409474638	3
0	1291	2125.491581881174	2
0	1293	2128.295997907656	3
0	1296	2131.788772146899	2
0	1298	2137.512379743027	3
0	1301	2144.405051985999	4
0	1304	2144.758912712615	5
0	1307	2144.805368473312	4
0	1309	2150.956149820624	5
0	1312	2151.968663539457	4
0	1314	2156.404636122362	5
0	1317	2158.738890213468	4
0	1319	2160.696750164774	5
0	1322	2160.863437708106	4
0	1324	2162.287490609062	5
0	1327	2163.398223685102	4
0	1329	2163.479661033461	3
0	1331	2164.734175519527	4
0	1334	2165.095985932891	5
0	1337	2165.426446053396	6
0	1340	2169.845075851791	7
0	1343	2170.488971991666	6
0	1345	2174.041773666904	5
0	1347	2183.387096383079	6
0	1350	2194.505276270519	5
0	1352	2196.784157235993	6
0	1355	2203.482269504999	5
0	1357	2203.862272432521	4
0	1359	2205.400076098595	5
0	1362	2208.341330323323	6
0	1365	2210.566954785994	7
0	1368	2212.713886109637	8
0	1370	2213.751440400439	7
0	1373	2214.883586170242	6
0	1375	2221.451610265984	7
0	1378	2221.739306018157	8
0	1380	2228.732802002149	7
0	1383	2233.457904278093	8
0	1385	2235.738971645609	9
0	1387	2241.775383436379	10
0	1389	2243.827770366686	9
0	1392	2243.951936738231	8
0	1395	2253.902768485367	9
0	1397	2255.918468347853	8
0	1400	2261.063059390168	7
0	1403	2261.553902308852	6
0	1405	2268.864342521475	7
0	1408	2278.25841577643	6
0	1410	2278.635603826966	7
0	1413	2278.959525744095	6
0	1415	2281.796682484028	7
0	1418	2284.21355576238	6
0	1420	2288.822577925287	7
0	1423	2290.110892316751	8
0	1425	2291.735283937617	7
0	1428	2293.82870630576	6
0	1430	2311.077049406359	5
0	1432	2316.681819257089	4
0	1434	2323.579043161519	5
0	1437	2333.377239444405	4
0	1439	2333.485129880947	3
0	1441	2335.821259036292	4
0	1444	2340.374397115906	3
0	1446	2343.438428580269	4
0	1449	2346.667512342362	3
0	1451	2358.391183096727	2
0	1453	2359.988464964924	1
0	1455	2360.51687534148	2
0	1458	2380.089074415877	1
0	1460	2386.017392876917	2
0	1463	2397.639691873983	1
0	1465	2399.708743709422	2
0	1468	2402.712943005076	1
0	1470	2405.049054204286	2
0	1473	2410.582991437138	3
0	1476	2429.471288939001	2
0	1478	2433.375758733419	1
0	1480	2434.865927127924	0
0	1482	2434.886197608423	1
0	1485	2439.417095513848	2
0	1488	2450.496561417179	3
0	1491	2453.674522331195	4
0	1494	2458.580051232365	3
0	1496	2458.620384123992	4
0	1499	2464.67257681645	5
0	1502	2467.493563538155	4
0	1504	2468.717378168663	5
0	1507	2471.851719036483	4
0	1509	2473.502702916451	3
0	1511	2486.6371198776	2
0	1513	2495.829544989802	1
0	1515	2496.557945969077	2
0	1518	2503.349947731705	3
0	1521	2518.126075846171	2
0	1523	2519.705187183852	1
0	1525	2524.650138354806	2
0	1528	2536.163538532388	1
0	1530	2538.495258636843	0
0	1532	2541.65847335733	1
0	1535	2558.174638978165	2
0	1538	2560.605262822865	3
0	1541	2561.276422611275	2
0	1543	2562.066988696496	1
0	1545	2563.924686645973	2
0	1548	2566.073825728644	1
0	1550	2569.901637953682	0
0	1552	2573.124418928918	1
0	1555	2586.546895543067	2
0	1558	2592.238832091877	1
0	1560	2592.563267698667	2
0	1563	2596.387317567353	3
0	1566	2597.544399177924	4
0	1569	2597.606347711	5
0	1572	2600.67810571516	4
0	1574	2603.586615753445	3
0	1576	2616.178901117502	4
0	1579	2617.145843051327	5
0	1582	2618.676330732181	4
0	1584	2624.19389151082	3
0	1586	2629.302819588139	4
0	1589	2631.036623627061	3
0	1591	2635.46902693552	2
0	1593	2638.719381264171	3
0	1596	2643.244525560813	4
0	1599	2654.055378305777	5
0	1602	2659.685104711578	6
0	1605	2662.591341474034	5
0	1607	2663.672664868778	6
0	1610	2668.407213743511	5
0	1612	2671.672721366015	4
0	1614	2673.354390459097	5
0	1617	2676.145161996624	6
0	1620	2681.071732024013	5
0	1622	2681.303878404359	6
0	1625	2687.241472505599	5
0	1627	2689.549327013306	6
0	1630	2692.526104365951	5
0	1632	2692.803846169084	6
0	1635	2696.229410505098	5
0	1637	2697.131082177481	4
0	1639	2709.382399387038	3
0	1641	2711.490022964095	4
0	1644	2717.539393888287	5
0	1647	2718.274672786916	4
0	1649	2729.162924145659	5
0	1652	2729.840597187231	6
0	1655	2735.177085730715	5
0	1657	2735.930709274291	4
0	1659	2742.389154765412	3
0	1661	2746.245487986122	2
0	1663	2753.32777949426	1
0	1665	2767.895559691727	0
0	1667	2772.864387404039	1
0	1670	2783.385317989585	2
0	1673	2794.033136894988	1
0	1675	2803.268682569521	0
0	1677	2815.722241335108	1
0	1680	2832.694671617725	2
0	1683	2845.43383496919	1
0	1685	2849.336269025504	2
0	1688	2850.039366436964	3
0	1691	2851.129136635123	2
0	1693	2852.315628718766	1
0	1695	2873.321126955103	2
0	1698	2877.820999316433	3
0	1701	2887.613773923794	4
0	1704	2893.809349008495	5
0	1707	2905.833815641161	4
0	1709	2909.171617135263	5
0	1712	2914.85161396108	4
0	1714	2921.644355781328	3
0	1716	2931.431995064885	4
0	1719	2934.624681929062	3
0	1721	2934.689565927233	4
0	1724	2942.1042411985	5
0	1727	2947.912356312795	6
0	1730	2948.598241271278	7
0	1733	2950.663761400888	6
0	1735	2951.318700842449	5
0	1737	2952.440227263116	6
0	1740	2953.302763971989	5
0	1742	2970.474256486432	6
0	1745	2977.771596396439	5
0	1747	2986.837072406758	6
0	1750	2987.394170757364	5
0	1752	2988.258143698571	6
0	1755	2990.918309198675	7
0	1758	2993.619103545177	8
0	1760	2999.896563704778	7
0	1763	3012.04386485888	6
0	1765	3013.466837302741	5
0	1767	3013.699548490153	4
0	1769	3014.232807524888	3
0	1771	3037.476413527754	2
0	1773	3048.59759037907	3
0	1776	3053.483576459079	4
0	1779	3062.482333787258	5
0	1782	3070.358154899785	4
0	1784	3073.546055509418	5
0	1787	3077.298941621062	4
0	1789	3091.323206160141	3
0	1791	3092.910090852932	2
0	1793	3095.787014302115	3
0	1796	3095.95407904254	2
0	1798	3097.02203844325	3
0	1801	3100.445741233408	2
0	1803	3106.662746987212	3
0	1806	3110.163687745291	4
0	1809	3114.660416261388	3
0	1811	3116.787086896849	4
0	1814	3120.960839485712	5
0	1817	3125.102793897396	4
0	1819	3128.682329562857	5
0	1822	3128.7994486181	4
0	1824	3139.438475136106	5
0	1827	3139.772972397672	6
0	1830	3148.652219326913	5
0	1832	3148.659355648747	4
0	1834	3149.351199983159	5
0	1837	3162.131515590555	6
0	1840	3162.863301142301	7
0	1843	3166.224413871652	6
0	1845	3166.4381369484	5
0	1847	3167.003835808281	4
0	1849	3167.508599941806	3
0	1851	3169.029483777925	4
0	1854	3169.664771875544	5
0	1857	3172.704689757424	6
0	1860	3173.424889925165	5
0	1862	3173.806126433775	6
0	1865	3176.871548029384	5
0	1867	3178.472200502992	4
0	1869	3181.467361968333	5
0	1872	3182.317902979991	4
0	1874	3191.566748025702	5
0	1877	3196.525510577736	4
0	1879	3215.546972429007	3
0	1881	3219.365392411508	2
0	1883	3237.926511534444	3
0	1886	3244.401347865224	4
0	1889	3247.921442180029	3
0	1891	3248.297866855774	4
0	1894	3250.637079735623	3
0	1896	3257.716657256876	4
0	1899	3258.830955278801	3
0	1901	3262.446829988384	4
0	1904	3262.475986696463	5
0	1907	3263.560969831788	6
0	1910	3266.536957655005	5
0	1912	3267.75324916154	4
0	1914	3270.899872629416	5
0	1917	3271.607467107132	4
0	1919	3274.764418040363	5
0	1922	3279.230369169482	6
0	1925	3280.682030456517	5
0	1927	3282.780268873063	4
0	1929	3296.514028842203	3
0	1931	3298.898708990817	4
0	1934	3299.001225776444	5
0	1937	3300.444934349424	4
0	1939	3302.101572552675	5
0	1942	3306.732540027486	6
0	1945	3309.155261249014	5
0	1947	3310.184571310411	4
0	1949	3312.064303602769	5
0	1952	3314.641052339589	6
0	1955	3316.313665954309	7
0	1958	3316.666685012733	6
0	1960	3322.086141993153	7
0	1963	3322.213916525702	6
0	1965	3324.365094127462	5
0	1967	3324.582433113753	4
0	1969	3324.793903217961	5
0	1972	3325.401277782878	4
0	1974	3330.049689950347	3
0	1976	3330.107077245588	2
0	1978	3347.063635406728	3
0	1981	3351.735022687852	4
0	1984	3355.857838617933	3
0	1986	3357.123478570874	4
0	1989	3361.92643520513	3
0	1991	3378.789749506994	2
0	1993	3380.647504188578	1
0	1995	3380.828438237765	2
0	1998	3385.976503271346	3
0	2001	3386.763238558039	4
0	2004	3388.839213715761	5
0	2007	3390.848852855107	6
0	2010	3396.862258017666	7
0	2013	3399.045006033868	6
0	2015	3402.200131795779	5
0	2017	3403.621966917917	6
0	2020	3406.607863538687	5
0	2022	3412.012483752234	4
0	2024	3412.393333128405	3
0	2026	3414.698951976325	2
0	2028	3418.504332456903	3
0	2031	3424.912444966444	2
0	2033	3442.981531337682	1
0	2035	3446.988635498929	2
0	2038	3452.589173473777	3
0	2041	3453.572275914166	4
0	2044	3464.426454078872	5
0	2047	3474.243384977178	6
0	2050	3475.260675411839	7
0	2053	3480.784403356002	6
0	2055	3483.818729363713	5
0	2057	3486.604437152004	6
0	2060	3486.789812298181	7
0	2063	3488.479314574014	6
0	2065	3491.146419853834	5
0	2067	3492.493602632098	6
0	2070	3492.669377210565	5
0	2072	3493.646724378947	4
0	2074	3494.325325143076	3
0	2076	3498.24657636596	4
0	2079	3499.9997408102	3
0	2081	3504.936796025636	2
0	2083	3508.984722957168	3
0	2086	3511.230195159693	4
0	2089	3514.70090468193	3
0	2091	3522.078056858193	2
0	2093	3532.45560215761	3
0	2096	3554.671370459199	4
0	2099	3555.911343577741	3
0	2101	3556.67382177094	4
0	2104	3567.476295477032	3
0	2106	3569.049385924646	4
0	2109	3576.965221734923	5
0	2112	3578.77643852744	6
0	2115	3579.614624883257	5
0	2117	3587.853661502018	4
0	2119	3588.408462866189	5
0	2122	3598.30725768909	4
0	2124	3600.979181493289	5
0	2127	3603.332516143067	4
0	2129	3605.223350670182	5
0	2132	3606.794562691356	6
0	2135	3610.690034418674	5
0	2137	3622.110901536589	4
0	2139	3633.640591880146	3
0	2141	3633.663329596987	4
0	2144	3633.74865722907	3
0	2146	3634.188716113005	4
0	2149	3635.231146837564	5
0	2152	3640.24588476664	6
0	2155	3640.635502965517	7
0	2158	3643.516626152224	8
0	2160	3643.932870822704	7
0	2163	3647.446772408827	6
0	2165	3647.812277173886	5
0	2167	3648.792154105173	6
0	2170	3648.942006918616	5
0	2172	3649.764034330138	6
0	2175	3651.82612888995	7
0	2178	3654.144534047546	8
0	2180	3660.669240767902	7
0	2183	3661.459964379748	6
0	2185	3661.604109083272	5
0	2187	3673.529685986585	4
0	2189	3676.441634304933	3
0	2191	3681.885812634175	4
0	2194	3683.076610401336	5
0	2197	3704.687434902947	6
0	2200	3706.08799648423	7
0	2203	3706.265777284568	8
0	2205	3711.547640277085	9
0	2207	3711.806687179676	10
0	2209	3712.751396115346	9
0	2212	3712.9523473141	10
0	2214	3713.925090825954	9
0	2217	3716.21063226845	10
0	2219	3719.505035791846	11
0	2221	3730.013576096553	12
0	2223	3730.21237401721	11
0	2226	3736.738289237811	10
0	2229	3740.032143569562	9
0	2232	3744.679329666473	8
0	2235	3749.197901138962	7
0	2238	3755.830107139202	8
0	2240	3756.377149924928	9
0	2242	3756.996293279848	8
0	2245	3757.764280268316	9
0	2247	3760.817014631848	10
0	2249	3761.524758461307	9
0	2252	3761.765073215665	8
0	2255	3761.852953171823	7
0	2258	3764.39985518691	6
0	2260	3767.755549813016	5
0	2262	3775.476934173723	6
0	2265	3776.86478282033	5
0	2267	3777.194425749712	6
0	2270	3782.952778562628	7
0	2273	3783.461776815754	6
0	2275	3785.737299219087	7
0	2278	3802.754912519908	6
0	2280	3803.766544866839	7
0	2283	3807.594488686203	6
0	2285	3809.665492745854	7
0	2288	3811.654960054692	8
0	2290	3814.643388788483	7
0	2293	3816.362724369729	8
0	2295	3817.947361455842	7
0	2298	3819.733985872124	6
0	2300	3821.82204264519	5
0	2302	3822.03153352057	6
0	2305	3822.141034709861	7
0	2308	3826.116011672304	6
0	2310	3826.377425662348	5
0	2312	3826.816011500882	6
0	2315	3834.14767612488	7
0	2318	3837.113498798298	6
0	2320	3838.445616138778	5
0	2322	3842.056757872623	6
0	2325	3843.821050883028	5
0	2327	3845.687921620021	6
0	2330	3845.745336306785	7
0	2333	3845.898884505095	8
0	2335	3846.905569466727	9
0	2337	3846.982548847684	10
0	2339	3853.792515811132	11
0	2341	3855.017986983334	12
0	2343	3856.52631299196	11
0	2346	3858.444239294271	10
0	2349	3865.078130464699	9
0	2352	3867.342152854876	8
0	2355	3880.379066041334	7
0	2358	3889.486810233531	6
0	2360	3890.595747683485	7
0	2363	3891.384356833602	6
0	2365	3891.718377428674	5
0	2367	3901.845747836241	4
0	2369	3907.459086193218	5
0	2372	3908.565143890802	6
0	2375	3914.037485081555	5
0	2377	3915.076879849175	4
0	2379	3918.876117410793	5
0	2382	3919.56884179382	6
0	2385	3920.782518644693	5
0	2387	3921.73581312507	4
0	2389	3924.50686989296	3
0	2391	3925.387162974077	4
0	2394	3926.282889128905	3
0	2396	3928.105120388292	4
0	2399	3937.224716176899	3
0	2401	3939.888893178444	2
0	2403	3950.04144720831	1
0	2405	3951.945446782322	2
0	2408	3963.520598131781	3
0	2411	3965.549502081438	4
0	2414	3967.508390032949	5
0	2417	3968.172200348714	4
0	2419	3974.448143690508	5
0	2422	3979.53999808244	6
0	2425	3980.17529659576	7
0	2428	3980.856629473883	8
0	2430	3989.077589625999	7
0	2433	3993.165757879572	8
0	2435	3999.876844146784	7
0	2438	4001.430854190896	8
0	2440	4001.477364527925	7
0	2443	4001.5057486392	6
0	2445	4006.873798524374	7
0	2448	4009.69268152643	8
0	2450	4015.939543621621	9
0	2452	4021.413027358344	10
0	2454	4026.686136554134	9
0	2457	4031.886814162848	10
0	2459	4036.65393169489	9
0	2462	4037.101246087334	8
0	2465	4040.190860276636	7
0	2468	4041.089772137194	8
0	2470	4041.25256289831	9
0	2472	4046.794107288732	10
0	2474	4054.003313659024	9
0	2477	4054.372156890193	8
0	2480	4054.653939271684	7
0	2483	4065.37221200628	6
0	2485	4071.467890378003	5
0	2487	4071.836949229786	4
0	2489	4071.900265901329	5
0	2492	4073.929172028022	4
0	2494	4075.544807576968	5
0	2497	4078.452822129008	4
0	2499	4080.562050025207	3
0	2501	4084.332672689753	4
0	2504	4086.715123753265	3
0	2506	4087.704889949444	4
0	2509	4088.453385847192	5
0	2512	4089.535972126203	6
0	2515	4098.50078177301	7
0	2518	4101.432312009401	8
0	2520	4105.891097484891	7
0	2523	4108.677092078547	6
0	2525	4112.938309387142	7
0	2528	4115.317892938652	6
0	2530	4121.088468389616	7
0	2533	4128.068014118729	6
0	2535	4128.230899218103	5
0	2537	4131.436618676999	6
0	2540	4132.647810053149	7
0	2543	4134.420457392941	8
0	2545	4136.477173642464	7
0	2548	4138.651074027539	8
0	2550	4147.764997970002	9
0	2552	4149.444655951687	8
0	2555	4150.711805567777	9
0	2557	4154.591027668568	8
0	2560	4158.615875829539	7
0	2563	4159.260623993794	6
0	2565	4159.772601500125	5
0	2567	4170.536678233368	6
0	2570	4177.211815955045	5
0	2572	4180.41784362806	4
0	2574	4182.543777581994	5
0	2577	4194.946427546944	4
0	2579	4197.034806017807	5
0	2582	4205.424417936032	4
0	2584	4209.558358613621	3
0	2586	4211.042816142873	4
0	2589	4216.917458054071	3
0	2591	4217.702444172428	4
0	2594	4229.718165584802	5
0	2597	4232.751466505798	6
0	2600	4234.627907575843	7
0	2603	4237.770225217689	8
0	2605	4240.266744839199	9
0	2607	4242.209702719478	8
0	2610	4245.156856539986	7
0	2613	4246.686385827069	6
0	2615	4250.179234840725	7
0	2618	4253.217974247243	8
0	2620	4254.132298737655	7
0	2623	4259.595717708999	6
0	2625	4260.319570512431	5
0	2627	4262.578090797387	4
0	2629	4267.238571692535	5
0	2632	4270.090799021641	4
0	2634	4273.830499755571	5
0	2637	4275.141487485158	6
0	2640	4279.436037320647	5
0	2642	4288.296660002957	4
0	2644	4306.290085458702	5
0	2647	4308.9408812871	6
0	2650	4309.767600890292	7
0	2653	4311.551619900745	6
0	2655	4313.914411112594	5
0	2657	4318.533748328978	6
0	2660	4318.825651932404	5
0	2662	4326.46272987119	4
0	2664	4328.582467540227	5
0	2667	4331.603179993656	4
0	2669	4332.166335775741	5
0	2672	4336.553267851662	4
0	2674	4337.599040097183	3
0	2676	4344.938463622059	2
0	2678	4346.814224889145	3
0	2681	4349.565539509773	4
0	2684	4354.045275925344	5
0	2687	4354.407963479071	4
0	2689	4358.814924298769	3
0	2691	4361.364009174202	2
0	2693	4370.7013708019	3
0	2696	4371.351594281184	4
0	2699	4377.334509368743	5
0	2702	4394.987540898952	4
0	2704	4404.708984539222	3
0	2706	4406.571583043093	2
0	2708	4410.105802092147	1
0	2710	4421.445596173612	2
0	2713	4423.263798031739	1
0	2715	4430.797221018867	2
0	2718	4437.851797212221	3
0	2721	4445.982619572457	2
0	2723	4452.641679023985	3
0	2726	4457.67727675158	4
0	2729	4457.921266754777	3
0	2731	4459.939411171115	4
0	2734	4462.49673547573	5
0	2737	4462.989388753446	4
0	2739	4464.077280635746	5
0	2742	4472.706938413817	6
0	2745	4473.277527167915	5
0	2747	4473.373405813357	4
0	2749	4474.983649538741	5
0	2752	4475.749297141681	6
0	2755	4479.392060834851	7
0	2758	4480.163771422922	6
0	2760	4480.970102447913	5
0	2762	4482.46099479848	6
0	2765	4486.682073440023	5
0	2767	4489.940749655461	4
0	2769	4492.864248466802	3
0	2771	4500.79492987025	4
0	2774	4509.501439148612	5
0	2777	4515.052112911415	6
0	2780	4516.923744029597	7
0	2783	4529.160424522552	6
0	2785	4530.236459673942	5
0	2787	4530.409228155608	4
0	2789	4531.595746223267	3
0	2791	4533.429096184587	2
0	2793	4540.09640318267	3
0	2796	4543.52324470208	4
0	2799	4543.957722725113	3
0	2801	4550.743919280243	4
0	2804	4558.320777653995	3
0	2806	4566.225690875993	4
0	2809	4568.190356944896	5
0	2812	4575.702285621966	4
0	2814	4578.790476877413	5
0	2817	4578.834386176752	4
0	2819	4578.951421237102	3
0	2821	4582.480135413929	4
0	2824	4583.571517520498	5
0	2827	4590.224683570935	4
0	2829	4593.324995592447	5
0	2832	4597.392403621167	6
0	2835	4598.297704198212	7
0	2838	4598.501290804153	8
0	2840	4598.559864489411	7
0	2843	4604.748411409382	8
0	2845	4608.296454502337	9
0	2847	4616.574910421099	10
0	2849	4617.222630284705	11
0	2851	4637.084838565273	12
0	2853	4643.900982465252	11
0	2856	4646.873534517345	10
0	2859	4647.840092559694	9
0	2862	4648.898386737459	8
0	2865	4651.695016975542	7
0	2868	4657.443571553115	6
0	2870	4658.065455813633	7
0	2873	4659.7968830977	8
0	2875	4666.669983727568	9
0	2877	4670.824908526967	8
0	2880	4674.632106333724	7
0	2883	4675.500308094108	8
0	2885	4677.035923180992	7
0	2888	4685.607577131689	8
0	2890	4687.407192617694	7
0	2893	4691.056148567102	6
0	2895	4692.866765707034	5
0	2897	4694.966124926459	4
0	2899	4695.802755595229	5
0	2902	4696.095801371443	4
0	2904	4698.993491636139	5
0	2907	4701.788549220326	6
0	2910	4702.467365317162	7
0	2913	4703.439568041272	6
0	2915	4704.198269239678	7
0	2918	4704.833682506588	6
0	2920	4706.767363674025	7
0	2923	4710.775229514312	6
0	2925	4712.545631252533	7
0	2928	4716.547131557456	8
0	2930	4723.435218881283	9
0	2932	4729.415670687993	8
0	2935	4729.46747436842	7
0	2938	4729.792797838191	8
0	2940	4730.222660205204	7
0	2943	4737.263725262707	8
0	2945	4737.594784501939	9
0	2947	4741.054949103898	8
0	2950	4743.587096039137	7
0	2953	4745.608112775579	8
0	2955	4751.980551074981	7
0	2958	4752.144416862659	6
0	2960	4752.536026606929	5
0	2962	4756.355231538639	4
0	2964	4757.072634282476	5
0	2967	4757.87788314854	4
0	2969	4771.927536845795	5
0	2972	4773.44490963656	4
0	2974	4775.22856453683	5
0	2977	4776.864469123777	6
0	2980	4781.73036111461	7
0	2983	4788.290373316633	8
0	2985	4790.064781903214	7
0	2988	4793.73877635807	6
0	2990	4793.977186355116	7
0	2993	4794.305469427551	8
0	2995	4797.831432884728	9
0	2997	4802.612063676255	10
0	2999	4805.044542053674	9
0	3002	4825.742995257586	10
0	3004	4829.463698805531	11
0	3006	4830.622107601388	10
0	3009	4833.310150964927	11
0	3011	4834.964946146084	10
0	3014	4835.769347618457	9
0	3017	4836.142916412095	8
0	3020	4836.71039642573	7
0	3023	4840.977258832882	6
0	3025	4843.192008043306	7
0	3028	4843.498820427048	6
0	3030	4853.505478821638	7
0	3033	4857.23775524512	6
0	3035	4858.509574792735	5
0	3037	4859.748426059073	6
0	3040	4863.525797248128	7
0	3043	4876.870359104571	6
0	3045	4877.286964843875	7
0	3048	4877.98611543314	6
0	3050	4879.130056685651	7
0	3053	4885.113565907342	6
0	3055	4885.178303357242	5
0	3057	4896.114085725483	6
0	3060	4897.198939639544	5
0	3062	4899.300712950282	4
0	3064	4908.132418277446	3
0	3066	4916.864008794165	4
0	3069	4917.930565035254	5
0	3072	4920.246831994841	6
0	3075	4921.939955075694	5
0	3077	4923.42684441987	6
0	3080	4923.799387596719	5
0	3082	4925.721738976706	4
0	3084	4928.635643946727	3
0	3086	4945.81633293061	4
0	3089	4955.434029553556	5
0	3092	4962.129651294631	6
0	3095	4966.997973864398	7
0	3098	4968.217434563873	6
0	3100	4968.896458059803	5
0	3102	4969.084773405997	6
0	3105	4972.006534692164	7
0	3108	4975.565577266303	6
0	3110	4978.301238901893	5
0	3112	4983.901973830816	4
0	3114	4984.610177037688	5
0	3117	4986.755228227654	4
0	3119	4990.422256896334	3
0	3121	4996.577095327166	4
0	3124	4999.774752523194	3
0	3126	5001.488895138845	4
0	3129	5010.720831930589	3
0	3131	5032.764589313392	2
0	3133	5042.920020237632	3
0	3136	5047.50367913576	4
0	3139	5048.211492852757	5
0	3142	5050.610056302434	4
0	3144	5054.707560711053	3
0	3146	5058.431653728631	2
0	3148	5060.735556149709	3
0	3151	5065.394947141989	2
0	3153	5068.925950206935	1
0	3155	5073.363352047406	2
0	3158	5075.26883361223	1
0	3160	5076.755218258032	0
0	3162	5079.838886609832	1
0	3165	5088.9007239365	0
0	3167	5090.573013985639	1
0	3170	5091.603867339604	2
0	3173	5091.813121917444	1
0	3175	5092.577779555589	2
0	3178	5095.870693945464	3
0	3181	5097.683173597911	4
0	3184	5098.602810696446	3
0	3186	5104.380936534922	4
0	3189	5106.300385526413	3
0	3191	5111.107327603458	4
0	3194	5112.020607179953	5
0	3197	5117.514653373177	4
0	3199	5119.001218446118	3
0	3201	5120.339095244059	4
0	3204	5128.629730921361	3
0	3206	5139.557504398629	2
0	3208	5142.288163044068	3
0	3211	5143.356088967817	2
0	3213	5157.814108970638	3
0	3216	5159.732556099251	4
0	3219	5165.443436292034	3
0	3221	5165.861423975999	4
0	3224	5182.785406568537	5
0	3227	5182.974637231265	6
0	3230	5189.704049466231	7
0	3233	5200.840658126867	8
0	3235	5207.043646556473	9
0	3237	5209.961874809731	10
0	3239	5210.139830205491	9
0	3242	5210.88669434878	8
0	3245	5217.486422515673	7
0	3248	5217.831111238373	6
0	3250	5218.466282607797	7
0	3253	5224.183935127191	8
0	3255	5227.692610124297	9
0	3257	5229.287705171761	8
0	3260	5240.770187486411	9
0	3262	5241.523827164481	8
0	3265	5241.755634915983	7
0	3268	5251.23018387988	8
0	3270	5256.291176644597	9
0	3272	5262.950269288492	10
0	3274	5266.801365847233	9
0	3277	5278.472120647054	8
0	3280	5280.977297349253	7
0	3283	5283.470736665442	6
0	3285	5283.801393169332	7
0	3288	5286.748587130928	6
0	3290	5287.207595987838	5
0	3292	5291.556787860185	4
0	3294	5292.450285487599	5
0	3297	5294.00495036906	6
0	3300	5297.345796466718	7
0	3303	5299.153162455192	8
0	3305	5301.0611181017	9
0	3307	5302.623896326482	10
0	3309	5310.525072949885	9
0	3312	5312.371665218892	10
0	3314	5312.635133744579	11
0	3316	5321.833319154036	12
0	3318	5324.537690788865	11
0	3321	5325.333233941759	12
0	3323	5331.96902338989	13
0	3325	5334.359813536118	14
0	3327	5334.719028541741	13
0	3330	5338.698481954351	12
0	3333	5345.331995106655	11
0	3336	5358.152800585092	10
0	3339	5360.701034755125	9
0	3342	5365.841534916228	10
0	3344	5366.810815351919	9
0	3347	5377.336422340705	10
0	3349	5377.848272397313	9
0	3352	5379.533333175167	8
0	3355	5380.681165942981	7
0	3358	5381.931562020745	8
0	3360	5382.000396865335	9
0	3362	5382.238229655579	10
0	3364	5389.389867241755	11
0	3366	5392.120747268023	10
0	3369	5392.268030221197	11
0	3371	5394.829681884437	10
0	3374	5395.48828396256	9
0	3377	5397.247011168977	8
0	3380	5399.636324615766	9
0	3382	5402.998527200176	8
0	3385	5403.261180788747	7
0	3388	5404.22987489015	6
0	3390	5409.627220709643	7
0	3393	5409.746314630596	6
0	3395	5410.162575749858	7
0	3398	5418.009198255363	8
0	3400	5418.903255711396	7
0	3403	5423.769025695839	6
0	3405	5425.098740999777	5
0	3407	5426.362256221551	4
0	3409	5427.767414079593	5
0	3412	5430.081099852735	6
0	3415	5433.148508553195	5
0	3417	5436.784522775014	6
0	3420	5440.946698601613	5
0	3422	5449.117254561303	4
0	3424	5454.061084965649	3
0	3426	5460.106164065928	4
0	3429	5468.006490010305	3
0	3431	5470.457568543374	2
0	3433	5481.559351957565	1
0	3435	5482.323486926463	0
0	3437	5495.037313162265	1
0	3440	5510.16321878738	0
0	3442	5512.72437380509	1
0	3445	5517.557825195935	2
0	3448	5523.261010485288	3
0	3451	5523.806041929367	2
0	3453	5525.13205563776	1
0	3455	5528.09132005388	2
0	3458	5535.362649020591	3
0	3461	5535.663634813085	4
0	3464	5540.527663623017	3
0	3466	5541.209670461468	4
0	3469	5541.484983046917	5
0	3472	5552.463747754762	6
0	3475	5557.458522398683	7
0	3478	5558.0570243546	6
0	3480	5570.335647455316	7
0	3483	5576.482916543447	6
0	3485	5585.42586298272	7
0	3488	5594.235161487294	8
0	3490	5595.393448423713	7
0	3493	5601.304355441358	8
0	3495	5613.94577297235	9
0	3497	5616.214538209802	10
0	3499	5617.470778295348	11
0	3501	5642.808907131867	12
0	3503	5652.382430137704	11
0	3506	5653.780538617772	12
0	3508	5656.240101135336	11
0	3511	5661.236060822411	10
0	3514	5664.946403428961	9
0	3517	5668.709296386321	8
0	3520	5674.570405730089	7
0	3523	5675.427452828671	8
0	3525	5678.646174471376	7
0	3528	5682.132525040811	8
0	3530	5686.887778708691	9
0	3532	5688.075265402258	8
0	3535	5700.025697517527	7
0	3538	5701.409949019471	6
0	3540	5702.6439828023	5
0	3542	5710.402401980148	6
0	3545	5715.168268149779	7
0	3548	5720.857412776532	8
0	3550	5723.643234628185	9
0	3552	5724.548185632356	8
0	3555	5727.744023165522	9
0	3557	5727.813667709619	10
0	3559	5730.840310154882	9
0	3562	5735.796982516312	8
0	3565	5736.863928481719	9
0	3567	5737.193564837247	10
0	3569	5739.189952029436	9
0	3572	5742.07402277178	10
0	3574	5745.657064343175	9
0	3577	5754.483470289982	8
0	3580	5757.303535390127	9
0	3582	5757.453121399487	10
0	3584	5758.532733125301	9
0	3587	5758.602582438055	8
0	3590	5759.580184025608	7
0	3593	5759.777537454773	6
0	3595	5762.531575534178	5
0	3597	5762.968776691481	4
0	3599	5766.707938516576	3
0	3601	5769.731696598828	2
0	3603	5777.852897071899	1
0	3605	5786.642821933425	0
0	3607	5811.604822705345	1
0	3610	5844.685231891911	2
0	3613	5846.641985391065	1
0	3615	5851.878536817533	2
0	3618	5853.414930577913	3
0	3621	5858.497978856781	4
0	3624	5865.140965282103	5
0	3627	5870.451744183614	4
0	3629	5875.825207247108	3
0	3631	5877.607237763266	4
0	3634	5882.675339262256	3
0	3636	5891.313446609113	4
0	3639	5892.638567826436	3
0	3641	5896.623160226996	4
0	3644	5899.281753535539	3
0	3646	5907.32029230782	4
0	3649	5910.821365047459	5
0	3652	5913.074243625322	4
0	3654	5923.02825600335	5
0	3657	5923.434658401684	6
0	3660	5925.699546335996	5
0	3662	5926.14293127579	6
0	3665	5929.071092462332	5
0	3667	5930.565065913708	4
0	3669	5948.948910573914	3
0	3671	5952.914976789334	2
0	3673	5964.635318917398	3
0	3676	5966.205177525943	2
0	3678	5975.26921389992	3
0	3681	6000.969705283522	4
0	3684	6002.907562435704	3
0	3686	6002.938017811756	4
0	3689	6004.304898062897	5
0	3692	6005.218430345017	4
0	3694	6007.790530876051	5
0	3697	6010.288046770177	6
0	3700	6022.4050423278	7
0	3703	6025.806788831084	8
0	3705	6033.882132301743	7
0	3708	6034.373491200047	6
0	3710	6034.513127413035	5
0	3712	6036.05596468553	4
0	3714	6040.631440466856	5
0	3717	6042.890028983784	4
0	3719	6047.183841530208	5
0	3722	6049.015552785379	6
0	3725	6049.773438718108	7
0	3728	6055.196367305399	6
0	3730	6059.099937702549	7
0	3733	6059.353706339255	6
0	3735	6069.505270720136	7
0	3738	6077.583054953871	6
0	3740	6079.187268599305	5
0	3742	6089.886119547024	4
0	3744	6096.055654878838	5
0	3747	6096.150166551068	6
0	3750	6097.329527780554	5
0	3752	6102.814463552399	4
0	3754	6102.834587121015	3
0	3756	6103.323288685889	4
0	3759	6108.310997265569	5
0	3762	6113.215983266384	6
0	3765	6116.124352196615	7
0	3768	6117.482697684042	8
0	3770	6120.351167544696	7
0	3773	6121.811157660485	6
0	3775	6122.728869666358	5
0	3777	6125.746857511539	6
0	3780	6129.165145408437	5
0	3782	6151.141344767651	6
0	3785	6160.852933659944	5
0	3787	6176.949527103555	4
0	3789	6180.549054933251	3
0	3791	6182.573609780251	2
0	3793	6187.546135936384	3
0	3796	6194.091498004855	4
0	3799	6195.342416836713	5
0	3802	6195.750510564376	4
0	3804	6197.47194212354	3
0	3806	6199.24764636395	2
0	3808	6200.234500850299	3
0	3811	6208.05751831671	4
0	3814	6214.342505039128	3
0	3816	6222.334875286804	4
0	3819	6222.660601201106	3
0	3821	6226.883816994267	4
0	3824	6228.718168642868	3
0	3826	6241.879726053663	4
0	3829	6242.9012822892	3
0	3831	6266.919955174628	2
0	3833	6278.133227385863	1
0	3835	6278.922164884742	2
0	3838	6285.25026654894	1
0	3840	6285.988098661986	2
0	3843	6298.043819592095	1
0	3845	6302.037977920109	2
0	3848	6306.504897491962	3
0	3851	6312.270741778307	2
0	3853	6316.429329308271	3
0	3856	6319.091499079928	4
0	3859	6327.727825322281	5
0	3862	6328.552347044275	4
0	3864	6335.580564351418	5
0	3867	6337.999399060964	6
0	3870	6342.147226322088	5
0	3872	6344.651711049075	4
0	3874	6351.503631185906	5
0	3877	6353.363616151492	6
0	3880	6355.330697669019	5
0	3882	6365.635691271672	4
0	3884	6366.771724640897	5
0	3887	6371.509930590895	6
0	3890	6373.76381433601	7
0	3893	6377.580970563416	8
0	3895	6377.842570732209	7
0	3898	6380.717766407735	6
0	3900	6380.818311951444	7
0	3903	6383.644682141989	8
0	3905	6383.7735258475	9
0	3907	6384.503806296646	8
0	3910	6385.223336056873	9
0	3912	6386.931177752173	10
0	3914	6394.095980899274	9
0	3917	6394.970154283379	10
0	3919	6399.477423188859	11
0	3921	6402.26071408734	12
0	3923	6403.05421556532	13
0	3925	6403.281748148933	12
0	3928	6408.412113518145	13
0	3930	6413.441143123301	12
0	3933	6417.614401121904	13
0	3935	6419.55391634034	14
0	3937	6426.148385867036	15
0	3939	6430.879209755113	14
0	3942	6431.946600446305	13
0	3945	6435.918520218909	14
0	3947	6438.807961246774	15
0	3949	6441.344828802558	14
0	3952	6441.68317900181	15
0	3954	6447.489068753571	16
0	3956	6449.2532152507	15
0	3959	6449.916941177268	16
0	3961	6454.611010419422	17
0	3963	6465.964357852929	18
0	3965	6472.927150503965	17
0	3968	6473.914412208061	18
0	3970	6479.955464602919	17
0	3973	6482.957629793807	16
0	3976	6488.711971611623	17
0	3978	6489.713573587919	18
0	3980	6497.080357543374	19
0	3982	6499.294143210164	20
0	3984	6500.175324859495	19
0	3987	6501.115443688211	20
0	3989	6502.670226504979	21
0	3991	6504.739714310692	22
0	3993	6507.546001859379	21
0	3996	6507.83880713163	20
0	3999	6509.54955115223	21
0	4001	6510.04562271446	22
0	4003	6510.365053486613	23
0	4005	6510.868946933812	24
0	4007	6511.573467603934	23
0	4010	6513.882054521305	24
0	4012	6514.715692821215	23
0	4015	6515.513399996162	22
0	4018	6518.891904678711	23
0	4020	6526.404553067959	22
0	4023	6527.456152779314	23
0	4025	6527.699875388874	22
0	4028	6530.580570249844	21
0	4031	6531.616234106737	20
0	4034	6534.656407989082	21
0	4036	6536.202633855516	20
0	4039	6539.07105674222	21
0	4041	6539.391377745389	22
0	4043	6540.430066208037	21
0	4046	6546.324382316063	22
0	4048	6548.451522036234	23
0	4050	6548.589507142536	22
0	4053	6554.959551622478	21
0	4056	6558.525123741952	22
0	4058	6559.267818176821	21
0	4061	6559.834716064362	22
0	4063	6560.628629285871	21
0	4066	6560.968880391806	20
0	4069	6561.364147503548	19
0	4072	6565.879555865836	18
0	4075	6571.079389158612	19
0	4077	6571.614428499901	18
0	4080	6575.830747137087	17
0	4083	6578.142715158989	16
0	4086	6583.862309643421	15
0	4089	6583.950967711915	16
0	4091	6585.032620440454	17
0	4093	6585.772513813789	18
0	4095	6587.255544714118	17
0	4098	6594.038036302605	18
0	4100	6594.575498190135	19
0	4102	6600.036683812647	18
0	4105	6613.838031854529	19
0	4107	6614.689813024358	20
0	4109	6619.606680383437	21
0	4111	6620.3039734626	20
0	4114	6625.384116867856	21
0	4116	6634.657142552052	20
0	4119	6635.081055467144	21
0	4121	6635.381009925414	22
0	4123	6637.146857891548	23
0	4125	6643.614186865454	22
0	4128	6646.942409061601	21
0	4131	6651.23649850178	20
0	4134	6654.870928197315	19
0	4137	6658.198905872674	18
0	4140	6659.84279304969	17
0	4143	6660.218536940061	18
0	4145	6664.409792389549	19
0	4147	6666.240166897744	18
0	4150	6670.926140595691	17
0	4153	6679.034794716449	16
0	4156	6682.58099240364	15
0	4159	6690.87102856464	14
0	4162	6693.256525960532	13
0	4165	6693.445146953009	12
0	4168	6695.436438439319	11
0	4171	6703.341793172032	10
0	4174	6704.015606074933	11
0	4176	6708.054358518317	12
0	4178	6709.396630020263	13
0	4180	6710.350928421834	12
0	4183	6710.701084384759	13
0	4185	6711.181753501493	14
0	4187	6716.528883907945	13
0	4190	6717.735949813064	12
0	4193	6722.467529479891	11
0	4196	6728.108655534351	10
0	4199	6729.720662529318	9
0	4202	6731.47886705641	10
0	4204	6736.925243073632	11
0	4206	6738.585247033837	12
0	4208	6742.822082431125	11
0	4211	6747.015491381141	10
0	4214	6753.27037786104	11
0	4216	6757.900831896966	10
0	4219	6758.632711431202	9
0	4222	6762.41100253296	8
0	4225	6769.256314157912	7
0	4228	6781.544550771322	8
0	4230	6783.138464684092	7
0	4233	6783.465494276675	6
0	4235	6783.47837576493	7
0	4238	6783.557004995557	6
0	4240	6783.691994949176	7
0	4243	6784.471862467233	6
0	4245	6784.505036890948	7
0	4248	6786.951172723757	8
0	4250	6790.058622130272	9
0	4252	6790.900285321482	10
0	4254	6804.418371610168	11
0	4256	6808.025528231018	10
0	4259	6811.614457551399	11
0	4261	6815.183678521095	12
0	4263	6816.071892631412	11
0	4266	6822.438981635204	10
0	4269	6822.640033261882	9
0	4272	6828.747467870357	10
0	4274	6832.1480958538	11
0	4276	6836.234612843105	10
0	4279	6838.091067529373	9
0	4282	6842.509017655635	8
0	4285	6845.663846612009	7
0	4288	6846.2446167062	8
0	4290	6847.650449677613	7
0	4293	6858.811192412887	8
0	4295	6867.060715363195	9
0	4297	6869.803915225986	8
0	4300	6874.979896942207	9
0	4302	6877.529139245744	8
0	4305	6878.559642595174	7
0	4308	6880.675968888817	8
0	4310	6881.167771240764	7
0	4313	6883.288215160669	6
0	4315	6885.538011374847	7
0	4318	6892.164564536136	6
0	4320	6900.349491726564	7
0	4323	6902.879435619575	8
0	4325	6905.213331746166	7
0	4328	6907.534899345655	8
0	4330	6915.814466328722	7
0	4333	6917.601355321782	6
0	4335	6918.846979856876	5
0	4337	6919.043388775885	6
0	4340	6919.663607263176	7
0	4343	6924.795618617507	6
0	4345	6928.613985059433	7
0	4348	6929.826940639541	6
0	4350	6930.702703401028	5
0	4352	6930.879176754316	6
0	4355	6936.350594296542	7
0	4358	6941.025643297427	8
0	4360	6944.317886342392	7
0	4363	6945.91441045698	8
0	4365	6948.765242241585	7
0	4368	6954.081302559536	6
0	4370	6956.71909744887	5
0	4372	6957.019365556426	6
0	4375	6960.157342343264	7
0	4378	6961.814170447513	8
0	4380	6961.83365167354	7
0	4383	6963.024041761966	6
0	4385	6968.279240220609	5
0	4387	6968.392987855249	6
0	4390	6981.496356559089	5
0	4392	6983.409931541211	6
0	4395	6986.794901625581	5
0	4397	6988.924568528208	6
0	4400	6996.412584492019	5
0	4402	7000.036415894609	4
0	4404	7003.350651960572	5
0	4407	7009.021995019962	6
0	4410	7013.214085156207	5
0	4412	7015.957154352497	6
0	4415	7017.656754058918	5
0	4417	7022.847637001802	6
0	4420	7025.317761808502	7
0	4423	7027.321722296286	6
0	4425	7039.57481758363	7
0	4428	7039.578573662179	8
0	4430	7039.961461047625	7
0	4433	7040.874772434019	6
0	4435	7046.87529661128	7
0	4438	7047.766823152018	8
0	4440	7053.781769205838	9
0	4442	7057.454093234351	10
0	4444	7063.131229015861	9
0	4447	7064.784128623549	8
0	4450	7071.300806149333	7
0	4453	7071.695344071759	6
0	4455	7072.195367631943	7
0	4458	7073.686922004712	6
0	4460	7074.721419537636	5
0	4462	7074.899362701555	6
0	4465	7076.258472375477	7
0	4468	7079.79780176949	6
0	4470	7085.371536297299	7
0	4473	7085.79978846229	6
0	4475	7094.110667790957	5
0	4477	7098.004012335427	6
0	4480	7099.480209166088	7
0	4483	7100.084171246027	6
0	4485	7112.482891014765	7
0	4488	7114.163223177909	6
0	4490	7117.674451914017	7
0	4493	7126.34973719816	6
0	4495	7129.807493003577	7
0	4498	7136.749595302	8
0	4500	7137.107093664772	7
0	4503	7139.778517374904	6
0	4505	7145.43059161031	7
0	4508	7147.885191712158	6
0	4510	7150.923169815013	7
0	4513	7151.169065304808	8
0	4515	7151.524130185119	7
0	4518	7155.446067331066	6
0	4520	7160.475304081856	5
0	4522	7162.374468507122	6
0	4525	7166.110368211225	7
0	4528	7166.445616818686	6
0	4530	7170.205225977674	7
0	4533	7174.610287454449	6
0	4535	7174.978818981301	5
0	4537	7176.980612113774	6
0	4540	7179.86758130451	5
0	4542	7182.332314006419	4
0	4544	7185.162171222655	3
0	4546	7191.737887688155	2
0	4548	7204.312543906179	1
0	4550	7226.654679582289	2
0	4553	7230.995121751309	3
0	4556	7234.573771171151	2
0	4558	7243.961435191788	1
0	4560	7256.418674182758	2
0	4563	7272.792205393288	3
0	4566	7275.214329132896	4
0	4569	7278.959467681101	3
0	4571	7280.477606829139	2
0	4573	7294.706473148108	3
0	4576	7304.653412702045	4
0	4579	7306.720363912749	5
0	4582	7307.943838913723	4
0	4584	7314.430480783343	3
0	4586	7316.786878822311	4
0	4589	7319.546518025907	3
0	4591	7324.618439823085	4
0	4594	7335.296075392774	5
0	4597	7342.120534659193	6
0	4600	7343.278764041224	5
0	4602	7346.877962698948	6
0	4605	7353.979690888348	7
0	4608	7354.236914649028	6
0	4610	7358.627674304211	5
0	4612	7360.880827702047	6
0	4615	7363.037206948884	5
0	4617	7372.291379486675	4
0	4619	7372.742227685727	3
0	4621	7374.144919998878	2
0	4623	7393.081986610198	3
0	4626	7394.240022515937	4
0	4629	7395.076177606267	5
0	4632	7395.533942422623	6
0	4635	7401.903667157969	5
0	4637	7407.913125835525	4
0	4639	7417.813667072863	5
0	4642	7427.290855335679	6
0	4645	7429.158358538509	7
0	4648	7430.418306248544	6
0	4650	7435.001323201224	7
0	4653	7442.089595630525	8
0	4655	7444.497699641868	7
0	4658	7446.062725847015	6
0	4660	7447.631685068921	5
0	4662	7448.874143376571	6
0	4665	7452.08127289413	7
0	4668	7452.789618955077	8
0	4670	7454.461968299604	9
0	4672	7455.05472412389	8
0	4675	7457.657784160155	9
0	4677	7460.681736801366	10
0	4679	7462.654193809355	11
0	4681	7469.53348760262	12
0	4683	7473.044201173979	11
0	4686	7477.253742072844	12
0	4688	7477.810936304814	11
0	4691	7480.448228820324	12
0	4693	7481.992741717522	11
0	4696	7482.788938376464	10
0	4699	7488.234095700978	11
0	4701	7488.323040715676	10
0	4704	7495.762506392482	11
0	4706	7497.693027596299	10
0	4709	7498.97161582566	11
0	4711	7499.444695111742	10
0	4714	7502.308244885938	11
0	4716	7504.019217494976	12
0	4718	7504.355896647816	11
0	4721	7505.161260568356	10
0	4724	7507.876284627967	9
0	4727	7509.470624763115	8
0	4730	7515.651457769818	7
0	4733	7519.538900677618	6
0	4735	7519.609405854163	7
0	4738	7523.406174640989	6
0	4740	7529.196000315832	7
0	4743	7529.480006733219	8
0	4745	7531.165117451119	7
0	4748	7532.323227782199	8
0	4750	7541.104206367434	7
0	4753	7546.691675050883	8
0	4755	7553.643708916783	9
0	4757	7553.786134301126	10
0	4759	7554.931667845645	9
0	4762	7556.505503155996	8
0	4765	7557.410014365296	7
0	4768	7558.224498341851	8
0	4770	7560.776329798511	7
0	4773	7561.191189062602	8
0	4775	7561.912795942683	9
0	4777	7561.953841580642	10
0	4779	7562.689192645553	11
0	4781	7565.950063851063	10
0	4784	7565.999003154192	9
0	4787	7569.634268235351	8
0	4790	7570.059657971086	7
0	4793	7571.656201974606	6
0	4795	7573.55201188333	7
0	4798	7574.700602562805	6
0	4800	7578.134823984167	7
0	4803	7578.241306095158	6
0	4805	7583.442865873099	7
0	4808	7583.960584319012	8
0	4810	7586.806239166157	7
0	4813	7588.933584840339	6
0	4815	7589.786881223669	7
0	4818	7591.053401627155	6
0	4820	7595.18662133615	5
0	4822	7596.613021855227	6
0	4825	7597.682502168225	7
0	4828	7598.6676554751	6
0	4830	7599.109113066284	7
0	4833	7605.529535167643	6
0	4835	7610.778471122103	7
0	4838	7611.107475339343	6
0	4840	7611.452399070198	5
0	4842	7614.279224377954	6
0	4845	7621.530704075205	7
0	4848	7628.37458245387	8
0	4850	7629.065799375956	7
0	4853	7631.169253169566	6
0	4855	7634.11605670883	7
0	4858	7634.837495685812	6
0	4860	7635.475010894472	5
0	4862	7639.060241488281	4
0	4864	7639.934052297585	3
0	4866	7641.871124201114	4
0	4869	7659.938170220266	3
0	4871	7664.718038218655	2
0	4873	7666.383173817573	3
0	4876	7669.244282076409	4
0	4879	7671.433432155002	5
0	4882	7671.995521400437	4
0	4884	7675.444957647145	5
0	4887	7678.285737155146	6
0	4890	7679.559176133587	7
0	4893	7681.021325751486	6
0	4895	7686.364793726397	5
0	4897	7689.26893293544	4
0	4899	7698.776441578115	3
0	4901	7703.695459320026	2
0	4903	7703.930897411868	3
0	4906	7712.329405301892	4
0	4909	7727.103961745649	5
0	4912	7729.223835352497	6
0	4915	7734.401340715172	5
0	4917	7741.335645528649	6
0	4920	7746.653848012408	5
0	4922	7749.293577710495	4
0	4924	7749.540649579851	3
0	4926	7751.563635804443	4
0	4929	7752.098976258504	5
0	4932	7753.099785109025	6
0	4935	7754.636289109231	5
0	4937	7759.487201915776	6
0	4940	7763.650280789713	7
0	4943	7764.263935192817	8
0	4945	7770.7246858369	9
0	4947	7771.673529837568	8
0	4950	7772.476693488941	7
0	4953	7782.998953752168	8
0	4955	7785.285014092524	9
0	4957	7789.534776911261	8
0	4960	7790.12090348465	7
0	4963	7793.111783118149	8
0	4965	7796.990326829012	7
0	4968	7799.825351816592	6
0	4970	7802.432907012936	5
0	4972	7802.670810870594	6
0	4975	7803.891339651376	5
0	4977	7805.036824705822	6
0	4980	7805.308576004087	7
0	4983	7814.764905384681	6
0	4985	7814.812312721868	5
0	4987	7827.41996946812	6
0	4990	7828.565974617979	7
0	4993	7832.178365447452	8
0	4995	7832.90541175256	9
0	4997	7835.739011027799	10
0	4999	7836.789439976829	11
0	5001	7836.910481830393	12
0	5003	7838.673960589822	11
0	5006	7843.019118655438	12
0	5008	7844.753313846563	11
0	5011	7846.909812473445	10
0	5014	7850.209462184654	11
0	5016	7853.899013785255	12
0	5018	7857.12520509993	11
0	5021	7860.509471299407	10
0	5024	7863.175944258859	11
0	5026	7864.194853582423	12
0	5028	7868.286537710536	13
0	5030	7869.70119448589	12
0	5033	7870.183140458792	11
0	5036	7870.241268044136	10
0	5039	7871.87578110118	9
0	5042	7872.411510612518	10
0	5044	7872.576098267981	11
0	5046	7874.958828005967	12
0	5048	7877.687372641089	11
0	5051	7878.98483431282	10
0	5054	7879.524074782163	11
0	5056	7881.824378934342	12
0	5058	7891.007384846008	13
0	5060	7896.564425609099	12
0	5063	7902.443386489394	11
0	5066	7910.076289992304	10
0	5069	7913.673987012319	9
0	5072	7916.451478350439	10
0	5074	7919.097997570463	9
0	5077	7922.013750691681	10
0	5079	7926.617109667335	9
0	5082	7930.192365728649	10
0	5084	7932.387880451118	9
0	5087	7934.508008586763	10
0	5089	7938.252354388798	11
0	5091	7954.053406220104	12
0	5093	7954.641861964687	11
0	5096	7963.455658473672	10
0	5099	7963.648320175931	11
0	5101	7969.972839649143	10
0	5104	7970.913776705375	9
0	5107	7976.919615763331	10
0	5109	7977.309491503956	11
0	5111	7977.38618350464	10
0	5114	7980.171519158301	9
0	5117	7980.368185747445	8
0	5120	7980.56920362265	7
0	5123	7981.808989679074	8
0	5125	7982.477555018834	7
0	5128	7982.642633061674	6
0	5130	7984.169357401722	5
0	5132	7984.587370465591	6
0	5135	7988.436146491146	5
0	5137	7995.805840101231	4
0	5139	8012.188512260279	3
0	5141	8012.243430583198	4
0	5144	8016.428288278735	3
0	5146	8019.79804435215	4
0	5149	8020.081830423441	5
0	5152	8022.406414594699	4
0	5154	8023.544175972414	3
0	5156	8025.423374426993	2
0	5158	8049.059552344836	3
0	5161	8050.815435094283	2
0	5163	8057.365194377189	1
0	5165	8070.764929735676	0
0	5167	8073.898089658779	1
0	5170	8078.441205684966	2
0	5173	8078.97108784598	3
0	5176	8079.607139930752	2
0	5178	8080.178863391571	3
0	5181	8083.136685206276	4
0	5184	8085.530211620364	5
0	5187	8089.97791129013	6
0	5190	8096.546373460886	7
0	5193	8097.302186905292	6
0	5195	8098.095516275595	5
0	5197	8099.471071904713	4
0	5199	8099.945221725388	3
0	5201	8105.187986595259	2
0	5203	8107.514651735797	3
0	5206	8108.212591652032	2
0	5208	8110.461007146881	1
0	5210	8110.729665333049	2
0	5213	8111.754922144957	3
0	5216	8114.382758223546	4
0	5219	8117.453935327034	5
0	5222	8120.428065208974	4
0	5224	8121.986587420332	3
0	5226	8123.009011559452	2
0	5228	8123.873123454648	3
0	5231	8134.53959141729	2
0	5233	8138.968291429831	3
0	5236	8140.915011153132	4
0	5239	8141.038805375028	5
0	5242	8141.600373602042	6
0	5245	8153.263618980279	5
0	5247	8156.306282234777	4
0	5249	8162.265975616691	5
0	5252	8170.511683862292	6
0	5255	8174.48451891929	7
0	5258	8175.865784032141	8
0	5260	8184.764176953776	9
0	5262	8186.661236309467	8
0	5265	8188.039988325832	7
0	5268	8191.131439032338	8
0	5270	8200.031561364537	9
0	5272	8200.200369231787	8
0	5275	8204.155256520786	7
0	5278	8205.863478678402	6
0	5280	8209.267587352985	5
0	5282	8211.607921754311	4
0	5284	8217.796967781038	3
0	5286	8220.196771052835	4
0	5289	8221.121213237252	5
0	5292	8223.829250726761	4
0	5294	8232.049176623737	3
0	5296	8235.732724366848	4
0	5299	8238.389626304221	5
0	5302	8241.522244283336	4
0	5304	8242.799139357995	5
0	5307	8243.527498728409	4
0	5309	8246.030462680171	5
0	5312	8248.046211427136	4
0	5314	8254.785807879242	3
0	5316	8254.894902739922	2
0	5318	8269.456781876558	3
0	5321	8278.210610342462	2
0	5323	8284.576538671544	3
0	5326	8292.032730744337	4
0	5329	8298.19393668912	3
0	5331	8304.847662751801	2
0	5333	8311.159923523229	3
0	5336	8311.660312579441	4
0	5339	8313.560825159495	5
0	5342	8330.362368507469	4
0	5344	8352.167672564513	5
0	5347	8356.659677938831	6
0	5350	8357.958398944335	7
0	5353	8363.666671401478	6
0	5355	8364.121644411885	7
0	5358	8367.293588761256	8
0	5360	8367.541739181794	9
0	5362	8368.816990324673	8
0	5365	8373.815879887538	7
0	5368	8376.441798317646	6
0	5370	8384.309249626888	5
0	5372	8384.593897023001	6
0	5375	8385.492512455086	5
0	5377	8387.588172499705	6
0	5380	8389.003855716988	7
0	5383	8390.340795562247	8
0	5385	8396.88019203063	7
0	5388	8399.77323910069	8
0	5390	8404.704539691868	7
0	5393	8404.979109524651	8
0	5395	8407.009738417711	9
0	5397	8413.209753203023	8
0	5400	8422.051041127108	7
0	5403	8424.56171789377	6
0	5405	8426.883603628665	7
0	5408	8427.50816552443	6
0	5410	8432.3378442289	5
0	5412	8447.405739979828	4
0	5414	8450.633300810774	5
0	5417	8451.229434246172	6
0	5420	8460.463881442012	5
0	5422	8473.410846287035	6
0	5425	8477.58672901082	5
0	5427	8477.977074710642	4
0	5429	8497.189989099716	5
0	5432	8501.763520056592	4
0	5434	8502.236351119087	5
0	5437	8503.306330926221	4
0	5439	8510.680095834808	3
0	5441	8515.477827833717	4
0	5444	8520.913660670899	3
0	5446	8532.750710805796	4
0	5449	8536.296669600246	5
0	5452	8538.810874157815	6
0	5455	8539.244239851051	5
0	5457	8541.150248412856	4
0	5459	8543.619350528531	3
0	5461	8546.585594922556	2
0	5463	8553.240771408348	3
0	5466	8556.718657422424	4
0	5469	8558.92725724767	5
0	5472	8561.654825858947	6
0	5475	8562.903817339513	7
0	5478	8564.129944039607	8
0	5480	8570.002009001191	9
0	5482	8576.267969333876	10
0	5484	8576.898260481665	11
0	5486	8576.953848438591	10
0	5489	8580.421570170585	11
0	5491	8582.641092734145	10
0	5494	8594.1307967869	9
0	5497	8597.798194889071	8
0	5500	8597.862865432799	7
0	5503	8599.08988226796	6
0	5505	8600.401605666611	7
0	5508	8606.810718409531	6
0	5510	8610.175964176613	7
0	5513	8611.886137648723	6
0	5515	8620.227630146812	5
0	5517	8628.759187258823	4
0	5519	8630.530083449199	3
0	5521	8632.508928812122	4
0	5524	8638.281230648298	3
0	5526	8644.203228672165	4
0	5529	8645.849027748899	5
0	5532	8651.38938077692	6
0	5535	8653.436605308051	7
0	5538	8655.428432306704	8
0	5540	8666.49505801349	9
0	5542	8669.919591118274	10
0	5544	8679.223510812091	11
0	5546	8679.786897451173	12
0	5548	8682.503289712432	11
0	5551	8682.822180734737	10
0	5554	8685.034528602666	11
0	5556	8685.966281242961	12
0	5558	8687.895910564261	11
0	5561	8691.393310129435	10
0	5564	8695.587539158974	9
0	5567	8697.48342402052	8
0	5570	8699.145524547265	7
0	5573	8701.470082870366	6
0	5575	8701.707244311509	5
0	5577	8704.777899676816	4
0	5579	8712.910404262163	3
0	5581	8716.789987455327	4
0	5584	8717.714942500479	3
0	5586	8723.136642238535	4
0	5589	8731.864105167862	5
0	5592	8736.417489226744	4
0	5594	8739.156155499299	5
0	5597	8742.989523178747	4
0	5599	8744.539914892084	3
0	5601	8745.934918306457	4
0	5604	8752.623223922531	5
0	5607	8759.864928555916	6
0	5610	8759.938490172988	5
0	5612	8768.357222469026	6
0	5615	8770.068304127183	5
0	5617	8770.499150944367	6
0	5620	8773.22971781421	7
0	5623	8775.33944448227	8
0	5625	8786.504069596853	7
0	5628	8786.946041721178	8
0	5630	8790.10122945443	9
0	5632	8794.212208865387	10
0	5634	8795.03203822091	11
0	5636	8798.491541993207	12
0	5638	8804.137152854439	11
0	5641	8804.672089117727	10
0	5644	8816.782360127443	11
0	5646	8820.635018737597	12
0	5648	8822.77499205044	11
0	5651	8823.365186263988	12
0	5653	8826.616749184097	13
0	5655	8829.627471108272	12
0	5658	8830.311480963963	11
0	5661	8833.72316958085	10
0	5664	8835.927419667922	11
0	5666	8841.998519209417	12
0	5668	8853.019025904886	11
0	5671	8860.5620540751	10
0	5674	8861.572283835127	11
0	5676	8864.096604520634	12
0	5678	8864.494426919638	13
0	5680	8866.322179272929	12
0	5683	8871.690846056983	11
0	5686	8873.48791780625	12
0	5688	8874.412357023805	13
0	5690	8876.834427311512	12
0	5693	8878.437459301449	13
0	5695	8882.81058654288	12
0	5698	8884.886815979249	11
0	5701	8888.916961205837	10
0	5704	8891.232491315123	11
0	5706	8893.20097429671	10
0	5709	8893.280175971978	9
0	5712	8895.822686396513	8
0	5715	8897.714739999179	9
0	5717	8903.236910754858	8
0	5720	8906.519121240199	7
0	5723	8907.403462291687	8
0	5725	8907.927135071599	7
0	5728	8911.705389903496	8
0	5730	8914.216787054422	9
0	5732	8914.602619717404	10
0	5734	8917.613903122854	9
0	5737	8917.708755930699	8
0	5740	8922.77930895972	7
0	5743	8923.215140012853	6
0	5745	8927.546515409286	5
0	5747	8930.602129700878	6
0	5750	8931.473196213304	5
0	5752	8935.490603996895	6
0	5755	8939.556116930555	5
0	5757	8941.981290423211	6
0	5760	8943.527005683443	7
0	5763	8944.650750374292	6
0	5765	8948.392324890293	5
0	5767	8953.843319379186	4
0	5769	8954.861846980437	5
0	5772	8959.674492724048	4
0	5774	8961.262895282333	5
0	5777	8961.392248497262	6
0	5780	8962.624057022563	5
0	5782	8965.55292474866	6
0	5785	8966.212855196734	7
0	5788	8967.511690244472	8
0	5790	8970.290345378007	7
0	5793	8973.67358439797	6
0	5795	8976.663859766236	7
0	5798	8981.90673202276	8
0	5800	8982.582922725636	9
0	5802	8983.921431727202	10
0	5804	8986.510884441387	9
0	5807	8994.932563692948	8
0	5810	8995.421252046919	7
0	5813	8996.806375415628	8
0	5815	8999.872840511366	7
0	5818	9000.752345495117	6
0	5820	9003.585375790037	5
0	5822	9013.840000941302	6
0	5825	9014.341183655569	7
0	5828	9014.964290823616	8
0	5830	9015.246105236155	7
0	5833	9018.757100107215	6
0	5835	9019.72498729647	7
0	5838	9023.855481920921	6
0	5840	9026.999706544696	5
0	5842	9033.032065507582	4
0	5844	9042.08674482431	5
0	5847	9043.507712247525	4
0	5849	9043.69799851468	5
0	5852	9044.658324715768	4
0	5854	9044.740717573675	5
0	5857	9044.848802691208	6
0	5860	9048.732810139849	5
0	5862	9052.54975327218	4
0	5864	9053.451277343333	3
0	5866	9055.458918611168	4
0	5869	9059.239279513572	5
0	5872	9065.154837568449	4
0	5874	9067.959698997198	5
0	5877	9069.437738284552	4
0	5879	9070.572455979523	3
0	5881	9076.019579687484	2
0	5883	9080.464349899137	3
0	5886	9083.966805472145	2
0	5888	9087.653631450686	3
0	5891	9090.740495830456	2
0	5893	9091.861060281044	3
0	5896	9097.965581034838	4
0	5899	9100.142954195034	3
0	5901	9100.97036680038	2
0	5903	9105.797724626704	3
0	5906	9105.829151123199	4
0	5909	9106.946868136192	3
0	5911	9107.148112340415	4
0	5914	9111.032725283275	5
0	5917	9122.597514564366	6
0	5920	9126.338991759714	5
0	5922	9126.711534464306	6
0	5925	9127.340045322736	7
0	5928	9131.9159605538	6
0	5930	9132.662248657863	5
0	5932	9133.178234439938	6
0	5935	9135.749779537187	5
0	5937	9142.779782539381	4
0	5939	9144.117017422905	5
0	5942	9145.275700255747	6
0	5945	9155.241720018345	7
0	5948	9158.388681752977	8
0	5950	9159.861251340005	7
0	5953	9166.176940758987	8
0	5955	9166.282136673192	7
0	5958	9168.147937249113	6
0	5960	9168.845451418658	5
0	5962	9170.263206226735	4
0	5964	9170.267027111428	3
0	5966	9171.185425435637	2
0	5968	9173.258246269219	3
0	5971	9179.947374183897	2
0	5973	9186.793715062071	3
0	5976	9187.558688095516	4
0	5979	9189.032982325385	5
0	5982	9198.934181323946	4
0	5984	9205.316681725981	5
0	5987	9215.3910886816	4
0	5989	9221.089085346655	3
0	5991	9221.672895801437	4
0	5994	9226.996087584365	5
0	5997	9230.299627933326	6
0	6000	9232.88134439804	7
0	6003	9235.474967741469	6
0	6005	9237.48845752863	7
0	6008	9237.544701570407	6
0	6010	9239.845362084793	5
0	6012	9243.551839855704	6
0	6015	9245.531852969286	5
0	6017	9245.593381808199	6
0	6020	9250.117964229534	5
0	6022	9255.283288242471	4
0	6024	9255.609535550823	5
0	6027	9272.711104290962	4
0	6029	9278.207586026529	5
0	6032	9282.439872725221	4
0	6034	9284.702941695609	5
0	6037	9285.82169487801	6
0	6040	9293.198587586446	5
0	6042	9297.636443875288	4
0	6044	9298.873463753605	3
0	6046	9299.78560904916	4
0	6049	9300.884331977383	5
0	6052	9302.657147195052	6
0	6055	9305.908233755658	5
0	6057	9311.611813327923	6
0	6060	9312.688635547408	5
0	6062	9313.722243792802	6
0	6065	9322.925048040826	7
0	6068	9325.26700271797	6
0	6070	9325.847960889325	7
0	6073	9334.051563625752	6
0	6075	9336.16352170009	7
0	6078	9339.060689300063	6
0	6080	9348.81248819827	5
0	6082	9355.365130473268	6
0	6085	9359.09045193772	7
0	6088	9361.235759608454	6
0	6090	9366.977469974179	5
0	6092	9369.984959804688	6
0	6095	9372.085810301868	5
0	6097	9372.116752404525	4
0	6099	9375.154359228139	5
0	6102	9375.582470304743	4
0	6104	9376.34964971545	3
0	6106	9379.54688762679	2
0	6108	9395.771946133043	1
0	6110	9407.70482482793	2
0	6113	9407.908814584515	3
0	6116	9409.617125095413	4
0	6119	9422.406379439857	3
0	6121	9423.904733636816	2
0	6123	9431.943141836963	3
0	6126	9433.677346379634	4
0	6129	9435.532530866356	3
0	6131	9441.354011667337	4
0	6134	9444.969944799932	3
0	6136	9454.017182733221	4
0	6139	9458.189265196511	3
0	6141	9460.215916736459	4
0	6144	9460.231518601385	5
0	6147	9460.933571380802	6
0	6150	9466.319969156336	5
0	6152	9476.419009625337	4
0	6154	9479.221403077467	3
0	6156	9493.313426854364	2
0	6158	9499.949195076844	3
0	6161	9500.918315343288	4
0	6164	9502.561300873705	3
0	6166	9508.267468448618	4
0	6169	9508.878362563322	3
0	6171	9518.827481393734	4
0	6174	9520.089257412031	5
0	6177	9521.758496564265	4
0	6179	9522.061136167362	5
0	6182	9524.706475080502	4
0	6184	9530.880150517336	3
0	6186	9532.741411149327	2
0	6188	9539.54534381949	3
0	6191	9541.023169643409	2
0	6193	9543.912344527042	3
0	6196	9545.645806569633	2
0	6198	9546.427619754592	3
0	6201	9546.736167169318	2
0	6203	9549.021345149544	3
0	6206	9550.801419856617	4
0	6209	9560.081915125721	3
0	6211	9562.47966059537	2
0	6213	9578.937257330275	3
0	6216	9585.286018688024	4
0	6219	9594.303728222843	3
0	6221	9596.060268160833	2
0	6223	9599.671187321837	3
0	6226	9617.801226598881	4
0	6229	9626.498727918589	3
0	6231	9638.383259808534	4
0	6234	9639.768617508106	3
0	6236	9648.102980020612	2
0	6238	9650.425879106626	3
0	6241	9652.829045785342	4
0	6244	9656.133261885832	5
0	6247	9674.18036735501	6
0	6250	9681.485635329747	5
0	6252	9683.613222220898	4
0	6254	9684.157477437172	3
0	6256	9687.145790349084	4
0	6259	9687.761756380884	5
0	6262	9689.177780992479	6
0	6265	9703.108259821285	5
0	6267	9703.84464402373	6
0	6270	9721.963986962094	7
0	6273	9722.825451861383	8
0	6275	9723.162739093254	7
0	6278	9735.678659231547	6
0	6280	9737.871309387302	5
0	6282	9749.382599141116	4
0	6284	9755.263799652946	5
0	6287	9757.578781507622	6
0	6290	9762.961154285535	7
0	6293	9763.075861230217	8
0	6295	9763.255052649541	9
0	6297	9769.56733745586	8
0	6300	9771.100989902825	7
0	6303	9775.918157106317	6
0	6305	9776.909722673093	7
0	6308	9777.111772371909	6
0	6310	9778.159287473048	5
0	6312	9780.553388103654	4
0	6314	9784.547327550818	5
0	6317	9786.942083749819	6
0	6320	9790.871998867142	5
0	6322	9793.193644209157	4
0	6324	9798.014480900636	5
0	6327	9798.170026402858	4
0	6329	9800.840671944984	3
0	6331	9806.773890587043	4
0	6334	9808.029789179769	5
0	6337	9812.662555620975	6
0	6340	9816.151941609239	5
0	6342	9816.205901074544	4
0	6344	9820.992366008569	5
0	6347	9826.663284820897	6
0	6350	9828.901807044091	7
0	6353	9842.48181663198	8
0	6355	9844.011956578703	9
0	6357	9846.90066478329	8
0	6360	9851.566074345806	9
0	6362	9857.465684332222	8
0	6365	9873.776644518528	9
0	6367	9882.629954294821	10
0	6369	9891.447551045612	11
0	6371	9895.898831886463	10
0	6374	9898.2434310131	9
0	6377	9898.868244669003	8
0	6380	9903.700186082087	7
0	6383	9904.61084431998	6
0	6385	9910.727378371645	5
0	6387	9913.636138265597	6
0	6390	9913.722416057654	7
0	6393	9918.154312659074	8
0	6395	9918.582552921421	7
0	6398	9920.311357199915	6
0	6400	9920.653011794208	5
0	6402	9926.26764844481	6
0	6405	9928.677616557452	5
0	6407	9934.130148946176	4
0	6409	9951.601732987387	3
0	6411	9955.39561330114	4
0	6414	9957.212172910432	3
0	6416	9968.88234568722	2
0	6418	9970.256131208203	3
0	6421	9972.593811042678	4
0	6424	9977.76303644699	5
0	6427	9980.79590437266	4
0	6429	9982.533094175702	5
0	6432	9983.194083330765	6
0	6435	9987.085050818774	7
0	6438	9989.600634582804	6
0	6440	10000.124411839613	5
0	6442	10010.048605431063	6
0	6445	10010.540311262775	5
0	6447	10010.759903273515	6
0	6450	10011.033608037026	7
0	6453	10014.485726730154	6
0	6455	10017.004021810645	7
0	6458	10023.762569921406	6
0	6460	10027.322739466256	5
0	6462	10036.373251510289	4
0	6464	10041.441545422414	5
0	6467	10054.153407089255	4
0	6469	10063.280235186362	5
0	6472	10063.834948980641	6
0	6475	10067.772439257051	7
0	6478	10068.963886740203	8
0	6480	10075.451055441547	9
0	6482	10085.438422000115	8
0	6485	10095.267992191634	7
0	6488	10095.588686463715	6
0	6490	10100.870692788861	7
0	6493	10104.929788499065	8
0	6495	10105.607787987809	9
0	6497	10108.320253179497	10
0	6499	10109.710126218732	9
0	6502	10118.386812244725	8
0	6505	10120.483867963917	7
0	6508	10121.097344056907	6
0	6510	10125.018363267923	7
0	6513	10126.993807445157	6
0	6515	10130.0850943855	7
0	6518	10134.597685173586	6
0	6520	10135.698631474408	5
0	6522	10135.900017679358	4
0	6524	10141.339827305219	3
0	6526	10143.114019609228	2
0	6528	10162.371793153609	3
0	6531	10164.365034292515	4
0	6534	10166.520961218486	5
0	6537	10172.574158928452	6
0	6540	10173.081317396185	7
0	6543	10173.226040078442	6
0	6545	10179.2253256158	5
0	6547	10183.749468909772	6
0	6550	10183.874354380748	5
0	6552	10187.103248726445	4
0	6554	10187.82890504617	5
0	6557	10193.305954224541	4
0	6559	10204.072220986699	3
0	6561	10215.206695009019	2
0	6563	10219.201161965423	3
0	6566	10222.049944591623	4
0	6569	10228.926557770223	5
0	6572	10238.261924014729	4
0	6574	10239.016769960988	3
0	6576	10244.25092728006	2
0	6578	10253.525929587713	1
0	6580	10255.370118556173	2
0	6583	10257.11353965825	1
0	6585	10273.551446191329	0
0	6587	10277.291649288423	1
0	6590	10280.014561558096	2
0	6593	10284.492653290844	3
0	6596	10289.559789527919	2
0	6598	10295.803169076246	3
0	6601	10297.873387784661	2
0	6603	10306.531585222184	3
0	6606	10318.149747827465	2
0	6608	10318.477470797577	3
0	6611	10332.501780260401	4
0	6614	10338.060902772872	5
0	6617	10344.267731900125	4
0	6619	10347.612106420108	5
0	6622	10353.43468082036	4
0	6624	10361.075688564482	5
0	6627	10368.057910405938	6
0	6630	10369.69049419727	7
0	6633	10370.774557532926	8
0	6635	10372.444429257929	9
0	6637	10373.049795186676	8
0	6640	10373.335593207721	9
0	6642	10373.829427297422	10
0	6644	10378.79789448933	9
0	6647	10386.862680990723	10
0	6649	10388.433199149187	11
0	6651	10389.75531267206	12
0	6653	10390.777663676928	13
0	6655	10403.882638841889	14
0	6657	10406.432730109387	15
0	6659	10410.941840563453	16
0	6661	10411.270291743105	15
0	6664	10412.874083243656	16
0	6666	10416.866844713819	17
0	6668	10418.299331101879	16
0	6671	10419.064871189281	15
0	6674	10419.153140819172	16
0	6676	10421.70223349518	17
0	6678	10428.056684729549	16
0	6681	10437.174889416722	17
0	6683	10444.174739224333	18
0	6685	10449.732864891792	17
0	6688	10451.367666025121	16
0	6691	10457.184705016096	17
0	6693	10459.611889480088	18
0	6695	10461.939644479085	17
0	6698	10468.398773138044	16
0	6701	10471.124948399579	17
0	6703	10473.162521616008	16
0	6706	10474.938419973447	17
0	6708	10478.969079409335	16
0	6711	10484.045884369124	17
0	6713	10484.132658645922	16
0	6716	10493.380986872338	15
0	6719	10498.505393730482	16
0	6721	10499.119493501487	15
0	6724	10499.594080586971	14
0	6727	10501.464519086484	13
0	6730	10510.774794274803	14
0	6732	10511.397752391564	13
0	6735	10511.951991056182	12
0	6738	10512.517210095675	13
0	6740	10518.226992615986	12
0	6743	10521.091469089917	13
0	6745	10522.500293792262	14
0	6747	10524.728664439883	13
0	6750	10530.446910354451	12
0	6753	10530.526284918862	13
0	6755	10531.641982172625	14
0	6757	10532.074486466089	13
0	6760	10532.697649379848	12
0	6763	10533.966290309675	11
0	6766	10535.745655588262	12
0	6768	10537.903653167345	13
0	6770	10538.445838292893	14
0	6772	10547.758034293591	13
0	6775	10550.521218879355	14
0	6777	10550.808960093098	13
0	6780	10559.704153671913	12
0	6783	10561.408293470216	13
0	6785	10567.331356320286	12
0	6788	10570.340448062823	11
0	6791	10578.133844684713	10
0	6794	10582.591045271603	9
0	6797	10583.508862167623	8
0	6800	10586.768523149456	9
0	6802	10591.949663539446	10
0	6804	10600.748884892387	9
0	6807	10603.041311625888	10
0	6809	10605.17232050909	9
0	6812	10605.640017633841	8
0	6815	10610.410869310752	7
0	6818	10612.807460788076	8
0	6820	10617.288575509695	7
0	6823	10619.531058220213	6
0	6825	10620.346002062491	5
0	6827	10622.630185661992	4
0	6829	10626.506007763519	3
0	6831	10641.421741609597	4
0	6834	10652.69378396012	5
0	6837	10656.509371663843	4
0	6839	10660.340485053168	5
0	6842	10666.774523025623	4
0	6844	10678.7506325397	5
0	6847	10686.08100104193	6
0	6850	10686.577840534118	5
0	6852	10696.813282601303	6
0	6855	10701.705580097386	7
0	6858	10704.501151656462	6
0	6860	10711.040498783157	5
0	6862	10712.268303020959	6
0	6865	10720.287891661983	5
0	6867	10727.275539763381	4
0	6869	10728.427881292033	5
0	6872	10730.456006618852	4
0	6874	10734.031497429844	5
0	6877	10743.037007654887	4
0	6879	10753.19879045969	5
0	6882	10760.074184880494	4
0	6884	10760.519061741431	5
0	6887	10763.278764065025	6
0	6890	10763.812120852793	7
0	6893	10764.327392606434	6
0	6895	10764.924332502139	7
0	6898	10765.578409466485	8
0	6900	10773.8381590697	7
0	6903	10778.820323755345	8
0	6905	10782.850106490453	9
0	6907	10785.833111235011	10
0	6909	10795.630230824925	11
0	6911	10795.69825218412	10
0	6914	10802.810592252228	9
0	6917	10802.828801552713	10
0	6919	10804.605621741383	9
0	6922	10814.691326858981	8
0	6925	10816.054122391003	7
0	6928	10824.928943664914	8
0	6930	10828.214517291606	7
0	6933	10836.552436901818	6
0	6935	10837.335813696038	5
0	6937	10839.487533197974	4
0	6939	10848.945044694851	3
0	6941	10848.99967639377	2
0	6943	10850.465482898125	1
0	6945	10851.298480503238	2
0	6948	10855.786430114302	1
0	6950	10860.166381052147	2
0	6953	10862.660626067038	3
0	6956	10862.872932458033	4
0	6959	10866.251913815564	5
0	6962	10867.403653242137	4
0	6964	10871.870202918261	3
0	6966	10873.512693736788	2
0	6968	10873.529622504133	1
0	6970	10874.978527710809	2
0	6973	10890.252140725741	3
0	6976	10891.992886484718	2
0	6978	10892.574045557947	1
0	6980	10893.605073561257	2
0	6983	10895.352209701936	3
0	6986	10896.140410256697	2
0	6988	10896.38190205945	1
0	6990	10914.904920551631	2
0	6993	10919.265711413564	3
0	6996	10929.202492415523	4
0	6999	10932.556638096299	5
0	7002	10933.981857387724	6
0	7005	10935.568874650949	7
0	7008	10935.920874980138	8
0	7010	10936.457164651976	7
0	7013	10938.189376629787	6
0	7015	10939.896247063268	7
0	7018	10945.138619856596	6
0	7020	10950.390788571563	5
0	7022	10954.026495916228	4
0	7024	10956.300646139642	3
0	7026	10958.771428033676	4
0	7029	10963.837372374698	5
0	7032	10975.679067288423	6
0	7035	10979.758838575667	5
0	7037	10980.343136230071	4
0	7039	10981.66394653858	5
0	7042	10982.517075404323	4
0	7044	10985.415229103291	5
0	7047	10988.310786311	4
0	7049	10989.114426708475	3
0	7051	10994.020223117395	2
0	7053	10998.6180353264	3
0	7056	11000.011676420207	2
0	7058	11000.060380970485	3
0	7061	11015.321159032756	4
0	7064	11019.292311873001	5
0	7067	11028.581744319085	4
0	7069	11030.825879788531	5
0	7072	11031.141570058361	6
0	7075	11032.545291566792	5
0	7077	11033.63659872596	6
0	7080	11037.211654604526	7
0	7083	11046.474135861402	6
0	7085	11052.765518908402	5
0	7087	11063.968797201467	4
0	7089	11064.723683900251	3
0	7091	11068.18115945721	4
0	7094	11070.359906395588	5
0	7097	11070.71703054547	6
0	7100	11075.073957097615	7
0	7103	11075.53358750851	6
0	7105	11080.823429534734	5
0	7107	11088.838454476552	4
0	7109	11095.579686199347	5
0	7112	11099.57552942259	4
0	7114	11128.119193531749	5
0	7117	11137.716839991667	6
0	7120	11143.597004461044	5
0	7122	11145.262874490064	4
0	7124	11151.267859420218	5
0	7127	11153.09090826366	4
0	7129	11163.255254654599	5
0	7132	11163.379099027824	4
0	7134	11166.506576821072	3
0	7136	11177.573488161849	2
0	7138	11189.548203136331	1
0	7140	11196.233969383111	2
0	7143	11198.228037755343	1
0	7145	11199.685799869399	2
0	7148	11203.255405706392	3
0	7151	11210.709068629149	4
0	7154	11213.333394529851	3
0	7156	11217.726938697936	4
0	7159	11237.08177775203	5
0	7162	11237.29165428872	4
0	7164	11245.347230989253	5
0	7167	11246.924877104962	4
0	7169	11247.319434691774	3
0	7171	11254.669747279882	4
0	7174	11254.694994961884	3
0	7176	11256.383046249606	4
0	7179	11257.183374710318	5
0	7182	11259.180458029847	6
0	7185	11262.473011728135	5
0	7187	11269.113021257718	6
0	7190	11274.83811393652	5
0	7192	11281.152434227691	4
0	7194	11282.416243646764	5
0	7197	11286.993644260377	6
0	7200	11287.751968022695	7
0	7203	11289.715997230099	8
0	7205	11294.925587050504	7
0	7208	11306.647448884463	6
0	7210	11309.578384606793	5
0	7212	11310.493093916395	6
0	7215	11315.406800350794	5
0	7217	11335.480622042618	4
0	7219	11343.142160734708	5
0	7222	11355.317404220649	6
0	7225	11356.222016560146	7
0	7228	11363.363373071207	6
0	7230	11368.55107095255	5
0	7232	11377.498834274016	4
0	7234	11379.561348822157	5
0	7237	11385.297272000131	4
0	7239	11389.028774283236	5
0	7242	11405.026107984532	4
0	7244	11405.316434487166	5
0	7247	11427.405787544719	4
0	7249	11434.281260228286	5
0	7252	11437.574014735496	6
0	7255	11439.184206960765	5
0	7257	11443.394517190506	6
0	7260	11444.389474510686	5
0	7262	11450.131460752761	4
0	7264	11451.451301959406	5
0	7267	11469.911446711637	6
0	7270	11471.344932428164	7
0	7273	11477.193996376024	8
0	7275	11478.391156752647	9
0	7277	11480.338899030674	8
0	7280	11482.106522488966	9
0	7282	11483.776795474434	10
0	7284	11485.286000618065	11
0	7286	11487.183737518141	10
0	7289	11492.874803461141	9
0	7292	11501.978305443945	8
0	7295	11510.287557985748	7
0	7298	11511.128350540425	8
0	7300	11514.853403618673	7
0	7303	11515.079824130706	6
0	7305	11519.886833943737	5
0	7307	11538.895225726711	4
0	7309	11539.421985124922	5
0	7312	11542.456423695685	4
0	7314	11547.870210956199	3
0	7316	11553.925648489075	4
0	7319	11559.082969163655	5
0	7322	11563.757995984605	6
0	7325	11564.730255901044	7
0	7328	11566.579254161122	6
0	7330	11567.909235055149	7
0	7333	11572.096527992891	8
0	7335	11573.517249040034	7
0	7338	11581.195356289474	6
0	7340	11584.031617305527	5
0	7342	11584.740941830796	4
0	7344	11587.131708651989	5
0	7347	11601.083439953486	6
0	7350	11601.43878196482	5
0	7352	11604.909220433637	6
0	7355	11605.875372499411	5
0	7357	11609.655451292634	6
0	7360	11610.112761457236	7
0	7363	11612.271507657826	6
0	7365	11619.180086213213	5
0	7367	11627.613159913235	6
0	7370	11628.602096427016	5
0	7372	11638.491380924034	4
0	7374	11645.268605662784	5
0	7377	11646.749285748925	4
0	7379	11647.115760139043	5
0	7382	11649.343985478187	4
0	7384	11650.98082606413	5
0	7387	11653.450296682713	4
0	7389	11661.87685583566	5
0	7392	11664.203062894712	6
0	7395	11672.11848334026	5
0	7397	11676.986390009445	6
0	7400	11684.740247565998	7
0	7403	11685.044072252092	8
0	7405	11686.599285165026	7
0	7408	11688.16555271478	6
0	7410	11688.29424566126	5
0	7412	11691.18244236701	4
0	7414	11691.725215479263	3
0	7416	11695.240061028947	4
0	7419	11699.824235959326	5
0	7422	11702.170386643806	4
0	7424	11704.249165206982	3
0	7426	11716.151632399585	4
0	7429	11720.840714269373	5
0	7432	11720.908385691251	4
0	7434	11722.705501823138	5
0	7437	11729.775754129322	6
0	7440	11747.804821051989	5
0	7442	11750.064037820781	6
0	7445	11752.159931294561	5
0	7447	11753.838304364554	6
0	7450	11758.961016668029	5
0	7452	11758.988167268868	4
0	7454	11764.913016020676	3
0	7456	11780.153704328812	2
0	7458	11794.469912908329	3
0	7461	11797.935361573487	4
0	7464	11801.606559335846	5
0	7467	11807.656076989975	4
0	7469	11808.888221406595	3
0	7471	11815.47677621484	4
0	7474	11830.373559164092	3
0	7476	11833.259759407779	4
0	7479	11833.965813697708	5
0	7482	11834.047643483852	4
0	7484	11836.552243439001	5
0	7487	11836.926676117537	6
0	7490	11841.136198321279	5
0	7492	11841.971484961834	4
0	7494	11844.264620746395	5
0	7497	11846.554964155434	6
0	7500	11846.880219492969	7
0	7503	11847.997017902484	8
0	7505	11850.410222758407	7
0	7508	11851.34323922444	6
0	7510	11855.024981770756	5
0	7512	11856.5266431887	4
0	7514	11868.962344883837	3
0	7516	11877.31638584466	4
0	7519	11879.985959317647	3
0	7521	11887.962341393146	2
0	7523	11902.01306655084	1
0	7525	11915.290582316932	0
0	7527	11929.410858220215	1
0	7530	11934.38289348648	2
0	7533	11939.10443624218	3
0	7536	11954.291109646256	2
0	7538	11956.783251319791	3
0	7541	11960.515258436014	4
0	7544	11960.573645034262	3
0	7546	11965.692916625209	4
0	7549	11967.857940793262	3
0	7551	11968.7105627819	4
0	7554	11970.940877005852	3
0	7556	11972.302760790385	4
0	7559	11975.575238983897	5
0	7562	11978.54162505367	6
0	7565	11985.089557234636	7
0	7568	11988.171417216988	6
0	7570	11991.1551857124	7
0	7573	11991.818197159424	8
0	7575	12004.841519381792	9
0	7577	12006.695094596934	10
0	7579	12008.795035867611	9
0	7582	12012.031717278852	10
0	7584	12012.563644825838	9
0	7587	12019.778686067115	10
0	7589	12020.822896706856	9
0	7592	12020.974496278003	10
0	7594	12037.88343130104	11
0	7596	12039.820027006965	12
0	7598	12041.937319077652	11
0	7601	12043.219405196417	12
0	7603	12043.268226057371	11
0	7606	12047.978134104736	12
0	7608	12051.464634335429	13
0	7610	12058.481241177416	12
0	7613	12067.491867980757	13
0	7615	12069.177011662046	12
0	7618	12071.76461139556	13
0	7620	12074.781070341848	12
0	7623	12075.682898097431	13
0	7625	12082.566038201013	14
0	7627	12086.850054460249	13
0	7630	12092.307236671476	12
0	7633	12093.687125054951	13
0	7635	12097.450288733065	14
0	7637	12097.891471686496	13
0	7640	12104.260869389463	12
0	7643	12108.430192768672	11
0	7646	12108.532762732757	10
0	7649	12109.950530415449	9
0	7652	12116.097115786931	10
0	7654	12120.095401556966	9
0	7657	12122.850900737298	8
0	7660	12133.153129139334	9
0	7662	12146.582020342382	8
0	7665	12151.964344341771	7
0	7668	12158.985397824318	8
0	7670	12160.674895592347	7
0	7673	12161.035157640047	6
0	7675	12174.240913743127	7
0	7678	12183.752325333579	8
0	7680	12184.455785536658	7
0	7683	12187.306761433931	6
0	7685	12190.211859826032	7
0	7688	12200.86129256964	6
0	7690	12201.108674297638	7
0	7693	12204.476587221015	6
0	7695	12212.434353561975	5
0	7697	12214.058224655282	4
0	7699	12218.693586903646	5
0	7702	12227.969535131855	4
0	7704	12239.534577679403	3
0	7706	12240.393569464448	4
0	7709	12244.881795168232	5
0	7712	12245.319002128503	4
0	7714	12249.014957244148	3
0	7716	12253.831743619148	2
0	7718	12268.668830639342	3
0	7721	12270.744935179387	4
0	7724	12274.070178841614	5
0	7727	12275.323472715922	4
0	7729	12276.207247210162	5
0	7732	12278.191646934831	6
0	7735	12278.343336315295	5
0	7737	12281.958264618935	6
0	7740	12285.937283974234	5
0	7742	12286.213315767195	6
0	7745	12287.784509137295	5
0	7747	12289.875277130732	4
0	7749	12290.244299321757	5
0	7752	12304.511899039909	4
0	7754	12308.376490777046	5
0	7757	12316.217342297467	4
0	7759	12317.197438531871	5
0	7762	12323.470335718022	4
0	7764	12324.559499482198	5
0	7767	12328.460173130043	6
0	7770	12333.967157027201	7
0	7773	12334.792997811671	6
0	7775	12335.748109534937	7
0	7778	12339.6878344012	8
0	7780	12339.974915927689	9
0	7782	12341.127973232866	10
0	7784	12344.724698150688	11
0	7786	12345.283768215428	12
0	7788	12346.280085009723	11
0	7791	12348.739815834327	12
0	7793	12359.425189226376	11
0	7796	12364.377502335194	10
0	7799	12370.87320190598	11
0	7801	12372.34031919041	10
0	7804	12380.000916122319	11
0	7806	12387.009676157534	12
0	7808	12388.228451661717	11
0	7811	12389.369359849765	10
0	7814	12390.224385680665	9
0	7817	12392.18315439261	10
0	7819	12396.707579120753	11
0	7821	12400.119044830712	10
0	7824	12404.043168804838	9
0	7827	12406.574434461487	8
0	7830	12411.143682227133	7
0	7833	12415.682810737859	8
0	7835	12417.901890519242	7
0	7838	12420.578307878491	8
0	7840	12421.613177043572	7
0	7843	12425.260385465185	8
0	7845	12428.192060676565	9
0	7847	12429.624998530111	10
0	7849	12430.125780944671	9
0	7852	12431.496073170033	10
0	7854	12431.507528891005	11
0	7856	12441.335011111033	12
0	7858	12443.161849293955	11
0	7861	12445.771320540575	10
0	7864	12446.761679730278	9
0	7867	12456.999742377863	10
0	7869	12462.042457028808	9
0	7872	12468.104229911687	10
0	7874	12469.062261764478	9
0	7877	12469.845032535449	10
0	7879	12469.948662946307	9
0	7882	12475.660576186342	8
0	7885	12477.452745119791	7
0	7888	12477.49631810345	6
0	7890	12491.123443511403	5
0	7892	12504.787404129156	4
0	7894	12505.864375672002	3
0	7896	12508.618121695603	2
0	7898	12519.191479093634	1
0	7900	12521.318134688961	2
0	7903	12523.281984124453	3
0	7906	12538.972373004977	4
0	7909	12542.235900754723	3
0	7911	12555.127971241411	4
0	7914	12564.668142982118	3
0	7916	12567.344972398709	4
0	7919	12569.79752391924	3
0	7921	12573.083426416454	4
0	7924	12575.63930639567	5
0	7927	12578.201422238064	4
0	7929	12581.167156779644	5
0	7932	12582.198486868922	4
0	7934	12584.041051810657	3
0	7936	12588.61073944731	4
0	7939	12596.191233621063	5
0	7942	12611.897017489145	6
0	7945	12612.353736105334	7
0	7948	12613.821675876402	6
0	7950	12618.304596121323	5
0	7952	12627.021465485251	6
0	7955	12632.363135693124	7
0	7958	12638.662363138581	6
0	7960	12644.452842604146	5
0	7962	12646.057511215962	4
0	7964	12647.124862147024	5
0	7967	12647.985155859541	6
0	7970	12648.724861850163	5
0	7972	12652.582275164976	6
0	7975	12655.317081550423	5
0	7977	12655.664376531281	6
0	7980	12663.253413298077	5
0	7982	12665.901466841009	4
0	7984	12670.69166686592	3
0	7986	12675.153303720236	4
0	7989	12675.51125225754	3
0	7991	12681.29135500308	2
0	7993	12684.734554706942	3
0	7996	12684.8176581863	2
0	7998	12687.362893808285	1
0	8000	12689.25213778545	0
[...]
1	7367	11627.613159913235	0
1	7370	11628.602096427016	0
1	7372	11638.491380924034	0
1	7374	11645.268605662784	0
1	7377	11646.749285748925	0
1	7379	11647.115760139043	0
1	7382	11649.343985478187	0
1	7384	11650.98082606413	0
1	7387	11653.450296682713	0
1	7389	11661.87685583566	0
1	7392	11664.203062894712	0
1	7395	11672.11848334026	0
1	7397	11676.986390009445	0
1	7400	11684.740247565998	0
1	7403	11685.044072252092	1
1	7405	11686.599285165026	0
1	7408	11688.16555271478	0
1	7410	11688.29424566126	0
1	7412	11691.18244236701	0
1	7414	11691.725215479263	0
1	7416	11695.240061028947	0
1	7419	11699.824235959326	0
1	7422	11702.170386643806	0
1	7424	11704.249165206982	0
1	7426	11716.151632399585	0
1	7429	11720.840714269373	0
1	7432	11720.908385691251	0
1	7434	11722.705501823138	0
1	7437	11729.775754129322	0
1	7440	11747.804821051989	0
1	7442	11750.064037820781	0
1	7445	11752.159931294561	0
1	7447	11753.838304364554	0
1	7450	11758.961016668029	0
1	7452	11758.988167268868	0
1	7454	11764.913016020676	0
1	7456	11780.153704328812	0
1	7458	11794.469912908329	0
1	7461	11797.935361573487	0
1	7464	11801.606559335846	0
1	7467	11807.656076989975	0
1	7469	11808.888221406595	0
1	7471	11815.47677621484	0
1	7474	11830.373559164092	0
1	7476	11833.259759407779	0
1	7479	11833.965813697708	0
1	7482	11834.047643483852	0
1	7484	11836.552243439001	0
1	7487	11836.926676117537	0
1	7490	11841.136198321279	0
1	7492	11841.971484961834	0
1	7494	11844.264620746395	0
1	7497	11846.554964155434	0
1	7500	11846.880219492969	0
1	7503	11847.997017902484	1
1	7505	11850.410222758407	0
1	7508	11851.34323922444	0
1	7510	11855.024981770756	0
1	7512	11856.5266431887	0
1	7514	11868.962344883837	0
1	7516	11877.31638584466	0
1	7519	11879.985959317647	0
1	7521	11887.962341393146	0
1	7523	11902.01306655084	0
1	7525	11915.290582316932	0
1	7527	11929.410858220215	0
1	7530	11934.38289348648	0
1	7533	11939.10443624218	0
1	7536	11954.291109646256	0
1	7538	11956.783251319791	0
1	7541	11960.515258436014	0
1	7544	11960.573645034262	0
1	7546	11965.692916625209	0
1	7549	11967.857940793262	0
1	7551	11968.7105627819	0
1	7554	11970.940877005852	0
1	7556	11972.302760790385	0
1	7559	11975.575238983897	0
1	7562	11978.54162505367	0
1	7565	11985.089557234636	0
1	7568	11988.171417216988	0
1	7570	11991.1551857124	0
1	7573	11991.818197159424	1
1	7575	12004.841519381792	2
1	7577	12006.695094596934	3
1	7579	12008.795035867611	2
1	7582	12012.031717278852	3
1	7584	12012.563644825838	2
1	7587	12019.778686067115	3
1	7589	12020.822896706856	2
1	7592	12020.974496278003	3
1	7594	12037.88343130104	4
1	7596	12039.820027006965	5
1	7598	12041.937319077652	4
1	7601	12043.219405196417	5
1	7603	12043.268226057371	4
1	7606	12047.978134104736	5
1	7608	12051.464634335429	6
1	7610	12058.481241177416	5
1	7613	12067.491867980757	6
1	7615	12069.177011662046	5
1	7618	12071.76461139556	6
1	7620	12074.781070341848	5
1	7623	12075.682898097431	6
1	7625	12082.566038201013	7
1	7627	12086.850054460249	6
1	7630	12092.307236671476	5
1	7633	12093.687125054951	6
1	7635	12097.450288733065	7
1	7637	12097.891471686496	6
1	7640	12104.260869389463	5
1	7643	12108.430192768672	4
1	7646	12108.532762732757	3
1	7649	12109.950530415449	2
1	7652	12116.097115786931	3
1	7654	12120.095401556966	2
1	7657	12122.850900737298	1
1	7660	12133.153129139334	2
1	7662	12146.582020342382	1
1	7665	12151.964344341771	0
1	7668	12158.985397824318	1
1	7670	12160.674895592347	0
1	7673	12161.035157640047	0
1	7675	12174.240913743127	0
1	7678	12183.752325333579	1
1	7680	12184.455785536658	0
1	7683	12187.306761433931	0
1	7685	12190.211859826032	0
1	7688	12200.86129256964	0
1	7690	12201.108674297638	0
1	7693	12204.476587221015	0
1	7695	12212.434353561975	0
1	7697	12214.058224655282	0
1	7699	12218.693586903646	0
1	7702	12227.969535131855	0
1	7704	12239.534577679403	0
1	7706	12240.393569464448	0
1	7709	12244.881795168232	0
1	7712	12245.319002128503	0
1	7714	12249.014957244148	0
1	7716	12253.831743619148	0
1	7718	12268.668830639342	0
1	7721	12270.744935179387	0
1	7724	12274.070178841614	0
1	7727	12275.323472715922	0
1	7729	12276.207247210162	0
1	7732	12278.191646934831	0
1	7735	12278.343336315295	0
1	7737	12281.958264618935	0
1	7740	12285.937283974234	0
1	7742	12286.213315767195	0
1	7745	12287.784509137295	0
1	7747	12289.875277130732	0
1	7749	12290.244299321757	0
1	7752	12304.511899039909	0
1	7754	12308.376490777046	0
1	7757	12316.217342297467	0
1	7759	12317.197438531871	0
1	7762	12323.470335718022	0
1	7764	12324.559499482198	0
1	7767	12328.460173130043	0
1	7770	12333.967157027201	0
1	7773	12334.792997811671	0
1	7775	12335.748109534937	0
1	7778	12339.6878344012	1
1	7780	12339.974915927689	2
1	7782	12341.127973232866	3
1	7784	12344.724698150688	4
1	7786	12345.283768215428	5
1	7788	12346.280085009723	4
1	7791	12348.739815834327	5
1	7793	12359.425189226376	4
1	7796	12364.377502335194	3
1	7799	12370.87320190598	4
1	7801	12372.34031919041	3
1	7804	12380.000916122319	4
1	7806	12387.009676157534	5
1	7808	12388.228451661717	4
1	7811	12389.369359849765	3
1	7814	12390.224385680665	2
1	7817	12392.18315439261	3
1	7819	12396.707579120753	4
1	7821	12400.119044830712	3
1	7824	12404.043168804838	2
1	7827	12406.574434461487	1
1	7830	12411.143682227133	0
1	7833	12415.682810737859	1
1	7835	12417.901890519242	0
1	7838	12420.578307878491	1
1	7840	12421.613177043572	0
1	7843	12425.260385465185	1
1	7845	12428.192060676565	2
1	7847	12429.624998530111	3
1	7849	12430.125780944671	2
1	7852	12431.496073170033	3
1	7854	12431.507528891005	4
1	7856	12441.335011111033	5
1	7858	12443.161849293955	4
1	7861	12445.771320540575	3
1	7864	12446.761679730278	2
1	7867	12456.999742377863	3
1	7869	12462.042457028808	2
1	7872	12468.104229911687	3
1	7874	12469.062261764478	2
1	7877	12469.845032535449	3
1	7879	12469.948662946307	2
1	7882	12475.660576186342	1
1	7885	12477.452745119791	0
1	7888	12477.49631810345	0
1	7890	12491.123443511403	0
1	7892	12504.787404129156	0
1	7894	12505.864375672002	0
1	7896	12508.618121695603	0
1	7898	12519.191479093634	0
1	7900	12521.318134688961	0
1	7903	12523.281984124453	0
1	7906	12538.972373004977	0
1	7909	12542.235900754723	0
1	7911	12555.127971241411	0
1	7914	12564.668142982118	0
1	7916	12567.344972398709	0
1	7919	12569.79752391924	0
1	7921	12573.083426416454	0
1	7924	12575.63930639567	0
1	7927	12578.201422238064	0
1	7929	12581.167156779644	0
1	7932	12582.198486868922	0
1	7934	12584.041051810657	0
1	7936	12588.61073944731	0
1	7939	12596.191233621063	0
1	7942	12611.897017489145	0
1	7945	12612.353736105334	0
1	7948	12613.821675876402	0
1	7950	12618.304596121323	0
1	7952	12627.021465485251	0
1	7955	12632.363135693124	0
1	7958	12638.662363138581	0
1	7960	12644.452842604146	0
1	7962	12646.057511215962	0
1	7964	12647.124862147024	0
1	7967	12647.985155859541	0
1	7970	12648.724861850163	0
1	7972	12652.582275164976	0
1	7975	12655.317081550423	0
1	7977	12655.664376531281	0
1	7980	12663.253413298077	0
1	7982	12665.901466841009	0
1	7984	12670.69166686592	0
1	7986	12675.153303720236	0
1	7989	12675.51125225754	0
1	7991	12681.29135500308	0
1	7993	12684.734554706942	0
1	7996	12684.8176581863	0
1	7998	12687.362893808285	0
1	8000	12689.25213778545	0
1	8002	12689.906034069383	0
1	8005	12692.782522839649	0
1	8008	12694.271871080469	0
1	8010	12699.319900325319	0
1	8013	12704.294272913287	0
1	8016	12714.253864135426	0
1	8019	12715.20859726499	0
1	8022	12723.242220813246	0
1	8025	12723.389573718577	0
1	8028	12731.143011840076	0
1	8030	12736.346991655337	0
1	8032	12755.825380534787	0
1	8034	12762.098602516676	0
1	8037	12768.154013131693	0
1	8039	12768.571018539322	0
1	8041	12769.900909854307	0
1	8043	12775.802034425998	0
1	8045	12786.749950113594	0
1	8048	12788.443965965807	0
1	8051	12788.698471642452	0
1	8053	12792.63969447719	0
1	8055	12792.703513580161	0
1	8058	12796.343270954343	0
1	8061	12807.630326422274	0
1	8064	12809.775008543092	0
1	8066	12834.920971677019	0
1	8068	12835.152053680229	0
1	8071	12842.562582518014	0
1	8074	12852.765921116256	0
1	8076	12856.261220966853	0
1	8079	12856.819133705312	0
1	8082	12872.059235192177	0
1	8084	12881.7798506338	0
1	8087	12886.740890377772	0
1	8090	12888.162502021395	0
1	8093	12889.292319837358	1
1	8095	12894.401539545452	0
1	8098	12899.612699932064	1
1	8100	12907.391579347915	2
1	8102	12908.23915148362	1
1	8105	12911.290458001586	0
1	8108	12914.013454132314	0
1	8110	12914.127531841203	0
1	8113	12915.127128632916	0
1	8115	12920.435700020667	0
1	8118	12921.569180951242	0
1	8120	12925.828625695625	0
1	8122	12930.764375941677	0
1	8125	12934.281314819489	0
1	8127	12936.896586261412	0
1	8130	12941.455930019613	0
1	8132	12945.997211093983	0
1	8135	12948.46602340606	0
1	8138	12953.265381330224	0
1	8140	12953.736023334063	0
1	8143	12954.855912330389	1
1	8145	12955.620453179146	2
1	8147	12957.055288338515	1
1	8150	12965.095176579172	0
1	8153	12967.302403200037	0
1	8155	12967.885964643656	0
1	8157	12968.519376915305	0
1	8159	12971.783924588053	0
1	8162	12973.379866142668	0
1	8165	12973.433503802464	0
1	8167	12979.415820215405	0
1	8169	12988.187963782689	0
1	8172	12990.875654836866	0
1	8175	12993.137401209554	0
1	8178	12998.081687364489	0
1	8180	13000.330631887897	0
1	8183	13001.70089469277	0
1	8185	13021.681536455959	0
1	8187	13021.91437561844	0
1	8190	13024.824385179254	0
1	8193	13028.614592999259	0
1	8195	13030.019312686898	0
1	8197	13030.873606588671	0
1	8200	13036.417346807427	0
1	8203	13039.614512616049	0
1	8205	13042.57709439599	0
1	8208	13043.888862969875	1
1	8210	13044.334999493295	0
1	8213	13049.474142721138	1
1	8215	13051.640435289417	0
1	8218	13059.479773935864	1
1	8220	13059.770668965018	0
1	8223	13061.269686706297	1
1	8225	13067.778639704211	0
1	8228	13069.306505123754	0
1	8230	13077.832199307608	0
1	8233	13078.616337044333	0
1	8235	13084.26621735198	0
1	8237	13086.09664458624	0
1	8239	13087.190911588927	0
1	8241	13092.652462656984	0
1	8243	13093.990867416998	0
1	8245	13112.327269502767	0
1	8248	13115.831596270784	0
1	8251	13124.389306457731	0
1	8253	13127.465962011565	0
1	8255	13130.779225334107	0
1	8258	13133.821675975208	0
1	8261	13138.067510575544	0
1	8264	13144.131234500053	0
1	8266	13150.036801076279	0
1	8268	13151.816047646112	0
1	8270	13154.674603794086	0
1	8273	13157.179140459478	0
1	8276	13160.572138504813	0
1	8279	13164.054317364161	0
1	8281	13181.912477642054	0
1	8284	13185.262814216242	0
1	8286	13188.559931104431	0
1	8289	13193.443678577146	0
1	8291	13194.61850425003	0
1	8294	13198.19077471846	0
1	8297	13199.276186419447	0
1	8299	13204.025901914152	0
1	8301	13204.602420460561	0
1	8303	13212.619072151733	0
1	8306	13225.511124703321	0
1	8308	13225.615822553205	0
1	8310	13230.232907406783	0
1	8313	13237.005365356378	0
1	8316	13241.609546492977	0
1	8319	13248.489910227016	0
1	8322	13251.663143503091	0
1	8325	13261.125505089666	0
1	8328	13261.23275149438	0
1	8330	13263.841589016815	0
1	8333	13267.341771859661	0
1	8335	13271.780223623794	0
1	8337	13272.58315241366	0
1	8340	13273.510466165205	0
1	8343	13275.698601130387	0
1	8345	13276.256666062534	0
1	8347	13278.160502779511	0
1	8349	13279.062037823756	0
1	8352	13279.191741530993	0
1	8355	13279.392062988031	0
1	8357	13280.357891754881	0
1	8359	13283.641389047185	0
1	8362	13287.64443990383	0
1	8364	13289.289752621444	0
1	8367	13289.426327770114	0
1	8370	13292.728269424017	0
1	8372	13298.604145899509	0
1	8375	13300.044145724894	0
1	8377	13301.257001338206	0
1	8380	13302.129057698767	0
1	8383	13302.480260327428	0
1	8385	13304.039311452455	0
1	8387	13306.754795823596	0
1	8390	13309.315828200101	0
1	8393	13310.18132700505	1
1	8395	13325.640250344485	2
1	8397	13331.270681386348	1
1	8400	13333.103661122864	0
1	8403	13333.755680896795	1
1	8405	13334.640484051452	0
1	8408	13340.902665853164	0
1	8410	13341.270119081489	0
1	8413	13343.730827489775	0
1	8415	13343.90092331266	0
1	8418	13344.431092746841	0
1	8420	13349.071462473309	0
1	8422	13352.160519568049	0
1	8424	13354.173638832562	0
1	8427	13358.693160421645	0
1	8429	13361.816471618598	0
1	8431	13361.999100400988	0
1	8433	13362.436129107054	0
1	8436	13363.809236326877	0
1	8438	13367.588599089375	0
1	8441	13380.794666765933	0
1	8444	13383.190699310657	0
1	8446	13386.145291961408	0
1	8448	13386.168746454382	0
1	8451	13388.364503858344	0
1	8453	13391.77867181589	0
1	8456	13393.196783196527	0
1	8458	13411.400087950025	0
1	8461	13412.364643490644	0
1	8464	13415.838870158303	0
1	8466	13416.763121767167	0
1	8469	13422.969926390751	0
1	8472	13435.323980280556	0
1	8475	13438.935183910515	0
1	8477	13442.731840819358	0
1	8479	13443.408667068385	0
1	8481	13443.512775736184	0
1	8483	13452.953579368926	0
1	8486	13455.946310459462	0
1	8488	13460.730495678073	0
1	8491	13462.648134743041	0
1	8494	13464.306778171972	0
1	8497	13467.131172431763	0
1	8500	13470.815132097223	0
1	8502	13471.470909248344	0
1	8504	13496.152070249855	0
1	8507	13498.629360644422	0
1	8509	13500.642737808503	0
1	8512	13508.280995850465	0
1	8515	13508.285344604064	0
1	8517	13509.832104421426	0
1	8520	13513.239562723019	0
1	8523	13513.959294385608	1
1	8525	13515.629292363986	2
1	8527	13515.668292708182	3
1	8529	13520.261263274917	2
1	8532	13522.170921574048	1
1	8535	13526.416637567297	0
1	8538	13531.446538403997	1
1	8540	13532.632188149544	0
1	8543	13537.273992265704	0
1	8545	13541.146790165382	0
1	8547	13542.584536831486	0
1	8549	13545.227967688111	0
1	8551	13552.488067436631	0
1	8554	13555.022258888728	0
1	8556	13574.353159625858	0
1	8558	13580.71424386042	0
1	8561	13583.4034003023	0
1	8563	13584.817957066346	0
1	8566	13604.217459222418	0
1	8568	13611.517307365092	0
1	8571	13613.422734433588	0
1	8574	13620.451736804301	0
1	8576	13620.858867077618	0
1	8579	13623.977025520757	0
1	8582	13630.2550903383	0
1	8585	13633.910303631264	0
1	8587	13636.268475234292	0
1	8590	13640.695158923275	0
1	8593	13642.044111816512	1
1	8595	13643.518186486321	2
1	8597	13645.949325470887	3
1	8599	13646.401511632723	4
1	8601	13649.063915795154	3
1	8604	13651.284965651803	4
1	8606	13652.61419101532	3
1	8609	13655.653864337118	4
1	8611	13662.688038163538	3
1	8614	13663.621945268001	2
1	8617	13664.221652202057	1
1	8620	13666.775880482878	2
1	8622	13670.312027327682	3
1	8624	13670.73413735479	2
1	8627	13684.516492850449	3
1	8629	13685.367256408174	2
1	8632	13687.153439094667	1
1	8635	13687.61460197902	2
1	8637	13696.373690851829	3
1	8639	13701.663098198385	2
1	8642	13702.824543883062	1
1	8645	13704.822969666401	2
1	8647	13714.145824527641	1
1	8650	13720.62023080073	2
1	8652	13723.366693638482	3
1	8654	13723.67428154427	4
1	8656	13726.377363938237	5
1	8658	13730.560982923064	4
1	8661	13730.640243262071	3
1	8664	13732.306955572539	2
1	8667	13739.653784960349	1
1	8670	13739.654411083604	0
1	8673	13745.731076114772	1
1	8675	13750.090644787898	0
1	8678	13750.767536035795	1
1	8680	13752.650626047112	0
1	8683	13752.715796101575	0
1	8685	13755.717505156383	0
1	8687	13756.50418947122	0
1	8689	13768.012406605056	0
1	8692	13772.715315529071	0
1	8694	13780.009507144383	0
1	8697	13783.245059882095	0
1	8699	13784.40635912258	0
1	8702	13794.05383655818	0
1	8705	13797.77721070287	0
1	8707	13799.874709422487	0
1	8710	13801.575698550317	0
1	8713	13803.047508429533	0
1	8715	13804.34835575401	0
1	8717	13814.189459107882	0
1	8719	13819.679961416846	0
1	8721	13821.173660904509	0
1	8724	13827.554512602631	0
1	8727	13833.406443852694	0
1	8730	13840.339165013367	0
1	8733	13843.249010096696	1
1	8735	13847.166623032523	0
1	8738	13851.718903164289	1
1	8740	13854.439374264184	2
1	8742	13856.504637054937	3
1	8744	13864.42874704914	4
1	8746	13870.099976306268	3
1	8749	13881.503708640622	2
1	8752	13882.4375869433	1
1	8755	13885.27928621556	2
1	8757	13890.872365371812	3
1	8759	13891.317418789464	2
1	8762	13894.695515196324	1
1	8765	13897.814687643618	0
1	8768	13899.48524630621	0
1	8770	13900.869539301665	0
1	8772	13903.69814420212	0
1	8774	13908.637657610065	0
1	8777	13910.736600840906	0
1	8779	13912.391665959133	0
1	8782	13913.693044220811	0
1	8784	13917.380209259909	0
1	8787	13922.127402709017	0
1	8790	13926.117537870707	0
1	8793	13926.529666511517	0
1	8795	13926.749655573344	0
1	8798	13929.087515812833	0
1	8800	13929.241404950214	0
1	8803	13932.887839434426	1
1	8805	13932.931422126084	2
1	8807	13937.925288700101	3
1	8809	13941.062409264961	4
1	8811	13946.523663562563	5
1	8813	13959.85013077462	4
1	8816	13960.703592701246	3
1	8819	13962.603846140013	2
1	8822	13962.947326837207	3
1	8824	13963.53645490797	2
1	8827	13965.329971554517	3
1	8829	13972.507532601417	2
1	8832	13975.793596287146	1
1	8835	13976.195173050951	2
1	8837	13977.301897290721	3
1	8839	13980.653735062057	2
1	8842	13981.301819510587	1
1	8845	13983.867136605201	2
1	8847	13984.426441596083	1
1	8850	13987.16217232487	2
1	8852	13988.662571061712	3
1	8854	13993.093710922211	4
1	8856	13993.936947795538	5
1	8858	14000.676518285827	4
1	8861	14005.616774433359	3
1	8864	14006.238207670767	4
1	8866	14010.649407094855	3
1	8869	14013.050408321133	4
1	8871	14018.745413983595	5
1	8873	14020.990375443411	6
1	8875	14022.656979693515	5
1	8878	14026.607862222917	6
1	8880	14028.954263746416	5
1	8883	14037.200581172458	6
1	8885	14037.741531760417	5
1	8888	14040.542023956529	4
1	8891	14043.156796640349	3
1	8894	14045.134695175539	2
1	8897	14046.613407047555	3
1	8899	14050.008435794331	2
1	8902	14050.545335282913	1
1	8905	14053.922180127089	2
1	8907	14060.649923713165	3
1	8909	14061.703228385027	4
1	8911	14071.005260973429	3
1	8914	14074.288472761192	4
1	8916	14080.205799234083	3
1	8919	14081.693143891838	2
1	8922	14083.214839419721	3
1	8924	14085.32984690334	2
1	8927	14089.24222848184	1
1	8930	14090.306618068847	2
1	8932	14094.261148661729	1
1	8935	14109.864340028958	0
1	8938	14111.48131655137	1
1	8940	14118.548842406141	2
1	8942	14119.153712555995	1
1	8945	14122.273774257695	2
1	8947	14126.365226200092	1
1	8950	14127.064352553374	0
1	8953	14128.305353135237	1
1	8955	14131.349802694569	2
1	8957	14135.399263929584	1
1	8960	14139.832506512771	0
1	8963	14140.784900979156	1
1	8965	14142.65403683266	0
1	8968	14145.126034392886	1
1	8970	14151.581312873117	0
1	8973	14160.247536052937	1
1	8975	14160.287478953877	0
1	8978	14160.287877966926	1
1	8980	14164.970556745551	0
1	8983	14165.149926122907	0
1	8985	14165.562404410751	0
1	8988	14169.080319218548	0
1	8990	14170.703409927577	0
1	8992	14174.171501687037	0
1	8994	14174.37746999183	0
1	8996	14179.664544954116	0
1	8999	14189.625998820746	0
1	9002	14193.901187202752	0
1	9004	14196.743033580909	0
1	9007	14197.940757263983	0
1	9010	14198.523312069132	0
1	9013	14200.341898633303	0
1	9015	14210.627213952798	0
1	9017	14211.307159806165	0
1	9019	14217.859315869994	0
1	9021	14222.399915802822	0
1	9024	14223.858811745572	0
1	9027	14227.387273923119	0
1	9030	14230.844511386418	0
1	9033	14240.063736685526	0
1	9035	14241.196546092208	0
1	9038	14242.312104535212	1
1	9040	14245.364305402385	0
1	9043	14255.542046454631	0
1	9045	14264.535109784053	0
1	9047	14266.241115493338	0
1	9049	14269.781276065852	0
1	9052	14277.185307367724	0
1	9054	14279.031841471396	0
1	9057	14279.484858532711	0
1	9060	14279.791561359997	0
1	9062	14280.579172068987	0
1	9065	14280.82601645828	0
1	9067	14283.538016789547	0
1	9069	14285.160376517687	0
1	9072	14285.538318375571	0
1	9075	14288.453215779512	0
1	9078	14291.378494062469	1
1	9080	14292.782660654295	0
1	9083	14296.092394071409	0
1	9085	14301.94579386503	0
1	9088	14304.435343967902	1
1	9090	14307.684222890283	2
1	9092	14311.059556347808	1
1	9095	14312.065468510059	0
1	9098	14314.241502342972	0
1	9100	14321.8547373907	0
1	9102	14323.761099340224	0
1	9105	14324.494966528694	0
1	9108	14326.839765762494	0
1	9110	14327.042361545075	0
1	9113	14329.403032414285	0
1	9115	14334.408780620214	0
1	9117	14336.301183984342	0
1	9120	14336.8882756233	0
1	9122	14337.734527874918	0
1	9124	14341.487879547287	0
1	9127	14342.194375758963	0
1	9130	14343.951553109361	0
1	9133	14348.874405149345	0
1	9135	14353.619282297322	0
1	9137	14360.313148520731	0
1	9139	14371.190395727224	0
1	9141	14375.738450133922	0
1	9144	14377.433857423588	0
1	9147	14379.793406946233	0
1	9149	14385.362816022786	0
1	9151	14390.788956757712	0
1	9153	14391.710123542017	0
1	9155	14397.813479446888	0

