version 2
run General-11-20191211-23:49:40-6375
attr configname General
attr datetime 20191211-23:49:40
attr experiment General
attr inifile omnetpp.ini
attr iterationvars ""
attr iterationvarsf ""
attr measurement ""
attr network Carrefour
attr processid 6375
attr repetition 11
attr replication #11
attr resultdir results
attr runnumber 11
attr seedset 11
param **.tillsNumber 7
param **.delta 0s
param **.policy 1
param **.capacity 0.3
param **.meanInterArrivalTime 8s
param **.meanItemsInACart 12
param **.interArrivalDistribution 0
param **.itemsInCartDistribution 0

vector 0 Carrefour.decider stats_numCustomers:vector ETV
attr "" ""
attr source numCustomers
vector 1 Carrefour.decider stats_numCustomersQueue:vector ETV
attr "" ""
attr source numCustomersQueue
0	715	1209.632060601788	5
0	717	1214.629692290581	6
0	720	1226.008783550927	5
0	722	1228.515855907782	6
0	725	1228.702406266079	7
0	728	1229.672225191182	8
0	730	1235.133646422799	7
0	733	1235.186723966413	6
0	735	1238.614977424792	7
0	738	1238.847448351007	8
0	740	1239.409003439341	7
0	743	1240.281555801818	8
0	745	1245.5549887097	7
0	748	1252.671242562147	6
0	750	1266.457559158029	5
0	752	1267.431482995159	6
0	755	1268.190034445096	5
0	757	1270.918161280351	4
0	759	1273.040756103375	3
0	761	1274.148572154393	4
0	764	1278.413279637632	3
0	766	1297.447616823305	4
0	769	1299.637147480044	3
0	771	1299.665489762388	4
0	774	1299.786193131792	3
0	776	1300.917672252341	4
0	779	1302.292105503436	5
0	782	1303.602221223663	6
0	785	1309.204607791901	7
0	788	1309.617050556641	6
0	790	1317.87170457389	5
0	792	1321.51955051954	4
0	794	1321.885057804316	3
0	796	1322.453455729679	4
0	799	1329.238684235406	5
0	802	1333.806473349013	6
0	805	1336.061110392719	5
0	807	1338.884781285694	6
0	810	1340.491285353037	7
0	813	1344.38371683252	6
0	815	1346.168217715207	7
0	818	1350.407822302543	6
0	820	1351.131688738913	7
0	823	1352.701773711837	6
0	825	1353.201545309806	5
0	827	1354.261247392307	6
0	830	1356.551879626724	5
0	832	1360.111161166828	6
0	835	1377.518664778633	7
0	838	1378.529955596148	8
0	840	1380.851014997512	9
0	842	1381.593292925176	10
0	844	1386.551989361202	9
0	847	1387.708541950521	8
0	850	1390.688062339647	7
0	853	1397.442398051813	8
0	855	1397.957952746401	7
0	858	1403.40087742539	8
0	860	1409.412594017881	7
0	863	1411.468042102795	8
0	865	1411.772053586546	7
0	868	1414.827369891791	6
0	870	1414.866522318939	5
0	872	1415.45707333028	6
0	875	1418.697735887234	5
0	877	1425.015147811359	6
0	880	1426.056899616885	7
0	883	1426.304315148002	8
0	885	1427.628788969457	9
0	887	1436.196251547016	10
0	889	1436.478399025844	9
0	892	1440.404022538748	8
0	895	1440.691329981837	7
0	898	1441.02526566299	6
0	900	1444.004027269616	7
0	903	1462.31559080212	6
0	905	1468.604395865827	5
0	907	1472.665760382937	4
0	909	1472.780164816951	3
0	911	1478.129568256812	2
0	913	1487.597828322763	1
0	915	1497.118622218455	0
0	917	1502.379876809024	1
0	920	1530.938130495975	2
0	923	1534.033213365578	1
0	925	1536.588726990918	2
0	928	1551.177022270003	1
0	930	1552.098224808314	2
0	933	1555.957571790159	1
0	935	1573.680539201197	2
0	938	1586.874818387011	3
0	941	1588.999415676722	2
0	943	1591.524844158156	3
0	946	1597.189139707671	4
0	949	1597.447101771826	3
0	951	1598.974574674509	4
0	954	1600.146575246185	5
0	957	1601.222300086312	4
0	959	1602.056658180362	3
0	961	1609.754441769961	2
0	963	1613.177725530779	3
0	966	1619.928503682994	4
0	969	1629.234029714584	3
0	971	1633.116930170487	4
0	974	1641.630953487606	3
0	976	1644.446069838841	4
0	979	1644.923669648384	5
0	982	1655.771739416973	4
0	984	1656.127186183903	5
0	987	1664.708616367806	4
0	989	1667.723946402627	3
0	991	1668.624035174736	4
0	994	1673.333157090375	5
0	997	1678.116459362298	6
0	1000	1678.824273298019	5
0	1002	1685.803595820461	6
0	1005	1688.808049252547	5
0	1007	1701.045393852003	6
0	1010	1702.431355336626	7
0	1013	1703.314367291608	6
0	1015	1706.031920208055	7
0	1018	1706.929712449614	8
0	1020	1708.739174048267	9
0	1022	1709.562332239584	10
0	1024	1711.707327647393	9
0	1027	1713.418404367509	8
0	1030	1714.585534278066	7
0	1033	1714.787037828151	6
0	1035	1719.409182855005	5
0	1037	1725.729749291878	4
0	1039	1725.84319188583	3
0	1041	1726.019980799279	4
0	1044	1728.682698790651	3
0	1046	1735.306179894065	2
0	1048	1750.790887956337	3
0	1051	1756.310531803604	2
0	1053	1758.175557950973	3
0	1056	1759.129826685963	4
0	1059	1769.355479537812	3
0	1061	1773.393147503033	4
0	1064	1778.321446817587	5
0	1067	1778.554674694529	6
0	1070	1787.759463198846	5
0	1072	1789.258881265627	4
0	1074	1791.696150437063	5
0	1077	1797.979240102532	4
0	1079	1800.811121074086	3
0	1081	1801.204386982521	2
0	1083	1801.44333793285	3
0	1086	1803.800901549541	4
0	1089	1814.023548017337	3
0	1091	1815.318324488875	4
0	1094	1820.029064226843	3
0	1096	1824.445314384907	2
0	1098	1825.912033034069	3
0	1101	1829.944649730179	4
0	1104	1831.035219592914	5
0	1107	1832.754998439714	6
0	1110	1841.237376782509	7
0	1113	1841.993943486292	6
0	1115	1842.717640253543	7
0	1118	1843.373695142726	8
0	1120	1850.82788293677	7
0	1123	1860.99531168673	8
0	1125	1863.124089305738	7
0	1128	1863.832793893261	6
0	1130	1865.810063950773	7
0	1133	1866.395953549533	6
0	1135	1872.316795946557	5
0	1137	1876.312693032704	6
0	1140	1879.908112559911	7
0	1143	1880.046433006179	6
0	1145	1883.483039843696	5
0	1147	1886.089301789835	4
0	1149	1897.364801164119	5
0	1152	1898.364197057735	4
0	1154	1902.810732383095	3
0	1156	1915.260715822624	2
0	1158	1923.512240464343	3
0	1161	1925.997601365634	4
0	1164	1926.288359396007	3
0	1166	1927.134818399128	2
0	1168	1927.417668101036	3
0	1171	1936.138520920482	4
0	1174	1945.53002738219	5
0	1177	1950.097280364805	6
0	1180	1951.408630979102	7
0	1183	1957.19201596082	8
0	1185	1960.141213935037	9
0	1187	1963.502045621753	8
0	1190	1963.543563710793	7
0	1193	1964.660972115786	6
0	1195	1965.865457900921	5
0	1197	1966.807811373713	6
0	1200	1970.968215242764	5
0	1202	1977.554854565333	6
0	1205	1977.835852436628	7
0	1208	1978.219273999069	6
0	1210	1979.420076301087	7
0	1213	1979.5618807076	6
0	1215	1995.890063961301	7
0	1218	1996.167896894695	8
0	1220	1997.739337802017	7
0	1223	1999.139506802878	6
0	1225	1999.615088615059	7
0	1228	2004.341879210261	6
0	1230	2013.031078491757	7
0	1233	2017.607943126874	6
0	1235	2017.687868767104	5
0	1237	2017.935110900238	4
0	1239	2018.892091786948	3
0	1241	2019.224224422058	4
0	1244	2025.313511860858	3
0	1246	2027.401820107441	2
0	1248	2035.005704998791	3
0	1251	2035.065196584077	4
0	1254	2037.038194490023	3
0	1256	2039.545554090376	4
0	1259	2039.947109218613	5
0	1262	2043.853342853104	6
0	1265	2047.161842676055	5
0	1267	2055.301939855552	4
0	1269	2056.413809944	3
0	1271	2065.513960957265	4
0	1274	2069.830776612559	5
0	1277	2071.737878445645	6
0	1280	2072.651676521143	5
0	1282	2074.432115433452	6
0	1285	2083.270969510799	5
0	1287	2084.755355838691	6
0	1290	2086.298947379546	5
0	1292	2087.305191841569	4
0	1294	2089.220009139897	3
0	1296	2090.983597953796	2
0	1298	2098.145007000139	3
0	1301	2102.205722626715	4
0	1304	2114.832796395582	5
0	1307	2115.372934250625	4
0	1309	2116.842513684332	3
0	1311	2124.602573602035	2
0	1313	2125.489692698357	3
0	1316	2131.816989730329	2
0	1318	2134.245047894205	1
0	1320	2138.509236389814	2
0	1323	2146.933859664163	3
0	1326	2150.180555270914	4
0	1329	2151.3312110909	3
0	1331	2154.456007662512	2
0	1333	2170.906461593444	3
0	1336	2172.266833270294	4
0	1339	2176.343046872972	3
0	1341	2176.357822953004	2
0	1343	2179.884426456809	3
0	1346	2180.296712959961	2
0	1348	2183.270773157911	3
0	1351	2183.5731532595	4
0	1354	2184.217076408643	3
0	1356	2186.661451341155	4
0	1359	2187.644004320198	5
0	1362	2188.504970904272	4
0	1364	2189.661167810399	5
0	1367	2190.750882544257	4
0	1369	2195.092201548907	3
0	1371	2200.960442630702	4
0	1374	2203.991622295569	5
0	1377	2208.800234025991	6
0	1380	2208.876854058973	5
0	1382	2212.403656759458	6
0	1385	2215.932962820759	5
0	1387	2219.828034239037	6
0	1390	2221.702526839582	5
0	1392	2227.770994180443	6
0	1395	2232.991164031571	5
0	1397	2241.101872308269	4
0	1399	2241.878462431261	3
0	1401	2243.714524985804	4
0	1404	2247.335658951674	5
0	1407	2252.740728857529	4
0	1409	2252.886942189076	5
0	1412	2253.176915614433	6
0	1415	2261.23595337472	5
0	1417	2266.760879543193	6
0	1420	2271.89615404996	7
0	1423	2280.275070936191	8
0	1425	2283.103158633753	7
0	1428	2284.602236414998	6
0	1430	2286.244392010133	5
0	1432	2288.399968903452	6
0	1435	2293.308620284419	7
0	1438	2320.830245057057	6
0	1440	2321.676614412125	5
0	1442	2324.098082501079	6
0	1445	2326.178255223472	7
0	1448	2326.380855409686	8
0	1450	2338.264230302173	7
0	1453	2340.840905369737	6
0	1455	2340.856038307368	7
0	1458	2341.289067448373	8
0	1460	2346.456386406313	7
0	1463	2347.002120545734	8
0	1465	2354.515601119676	7
0	1468	2356.402988573101	6
0	1470	2364.526500322373	7
0	1473	2364.743142564442	8
0	1475	2371.273413292503	7
0	1478	2380.020339040047	8
0	1480	2380.228679502622	7
0	1483	2381.364061683121	8
0	1485	2382.421472165397	9
0	1487	2391.397798048581	8
0	1490	2400.297568064194	7
0	1493	2401.56870036732	8
0	1495	2401.807970579195	9
0	1497	2402.095117834715	10
0	1499	2402.124132922288	11
0	1501	2407.176848202866	10
0	1504	2407.226738413552	11
0	1506	2409.396434734212	10
0	1509	2410.061493566532	11
0	1511	2410.718827021438	12
0	1513	2412.969988620091	11
0	1516	2416.992360033224	10
0	1519	2417.882242699467	9
0	1522	2438.368041747878	10
0	1524	2442.813823959082	9
0	1527	2444.577748707916	10
0	1529	2445.066673864499	11
0	1531	2450.213995851659	10
0	1534	2453.880110315244	9
0	1537	2454.569864979771	10
0	1539	2457.252880174046	9
0	1542	2458.939720094889	10
0	1544	2459.366623343043	11
0	1546	2461.009798953633	10
0	1549	2462.274599188284	9
0	1552	2465.965165249203	8
0	1555	2470.797725806061	7
0	1558	2476.379434380632	6
0	1560	2480.261244349197	5
0	1562	2484.586787770724	4
0	1564	2489.311346768705	3
0	1566	2502.612307181078	4
0	1569	2508.469347057298	3
0	1571	2509.808255553597	2
0	1573	2516.195635145954	1
0	1575	2524.929507149007	2
0	1578	2527.867635240098	3
0	1581	2532.376994035728	4
0	1584	2547.648384976229	3
0	1586	2553.833845860855	2
0	1588	2559.932795599994	1
0	1590	2574.791158368765	2
0	1593	2598.316965756672	1
0	1595	2603.271838257441	2
0	1598	2603.543081216615	3
0	1601	2607.322247368635	4
0	1604	2623.076440148197	5
0	1607	2627.069496488539	4
0	1609	2627.419994748087	3
0	1611	2629.987629626124	4
0	1614	2643.512921839345	5
0	1617	2646.108252425486	6
0	1620	2649.959504985553	5
0	1622	2664.910386548652	4
0	1624	2665.179607899591	3
0	1626	2669.750581062609	2
0	1628	2671.253589036355	3
0	1631	2672.830621796065	4
0	1634	2676.351132582186	3
0	1636	2678.584171120966	4
0	1639	2684.318024569882	5
0	1642	2684.647492751183	4
0	1644	2694.075091941319	5
0	1647	2696.796836985679	4
0	1649	2698.841811867058	3
0	1651	2705.388442394887	2
0	1653	2722.520841852899	1
0	1655	2743.081589649704	2
0	1658	2757.896398281028	3
0	1661	2763.575935309454	4
0	1664	2764.777834939649	5
0	1667	2768.102523921097	6
0	1670	2768.549705778426	5
0	1672	2769.70543210922	6
0	1675	2771.370194454923	7
0	1678	2776.475317998818	6
0	1680	2778.213600737241	7
0	1683	2778.56954287387	8
0	1685	2784.342408089709	9
0	1687	2786.300663148408	8
0	1690	2786.886160782523	7
0	1693	2788.942904712904	6
0	1695	2790.243117476195	5
0	1697	2790.654344074198	4
0	1699	2790.803536096349	5
0	1702	2796.791828586478	4
0	1704	2797.183951989284	3
0	1706	2798.158968231639	4
0	1709	2802.579198585844	3
0	1711	2803.447133856268	4
0	1714	2804.558617263583	3
0	1716	2805.79001856573	4
0	1719	2810.395763557772	3
0	1721	2821.47791538986	4
0	1724	2821.573130178446	5
0	1727	2824.93128575935	4
0	1729	2825.765827805077	5
0	1732	2828.130782969706	6
0	1735	2829.624195552019	5
0	1737	2830.552858336358	6
0	1740	2837.354264026127	5
0	1742	2841.391002326429	6
0	1745	2841.923150313017	5
0	1747	2852.278351689546	4
0	1749	2866.339091700942	3
0	1751	2871.712822065648	2
0	1753	2891.632818332078	3
0	1756	2898.096616235476	2
0	1758	2917.119859248007	1
0	1760	2919.54768047904	2
0	1763	2932.365441641622	3
0	1766	2936.433029045649	4
0	1769	2936.951373093593	5
0	1772	2937.620336810303	6
0	1775	2937.848215828298	5
0	1777	2940.656430756532	6
0	1780	2946.25998776066	5
0	1782	2950.341652917606	4
0	1784	2957.961720760428	3
0	1786	2963.594289069499	4
0	1789	2964.28555434457	5
0	1792	2970.421987015263	6
0	1795	2974.887967749155	5
0	1797	2981.370145638027	6
0	1800	2990.295887152757	5
0	1802	2994.194261976743	6
0	1805	2996.528846483619	7
0	1808	2996.800821678562	6
0	1810	3002.754817381757	5
0	1812	3011.350698570307	4
0	1814	3014.634444620308	3
0	1816	3020.72277686339	4
0	1819	3024.180107633247	5
0	1822	3025.826496620343	6
0	1825	3033.086561383665	5
0	1827	3034.367961554852	6
0	1830	3035.741192822077	5
0	1832	3040.807701822889	4
0	1834	3063.42065898897	3
0	1836	3065.552379357612	4
0	1839	3073.043716424338	3
0	1841	3079.949294746442	4
0	1844	3081.592110717801	5
0	1847	3083.527203305076	4
0	1849	3086.668022191964	3
0	1851	3091.822441115868	4
0	1854	3095.501339007071	5
0	1857	3099.666654843682	6
0	1860	3101.882047139359	7
0	1863	3111.536543785771	6
0	1865	3113.866604285762	7
0	1868	3115.685421581218	6
0	1870	3117.954820783326	7
0	1873	3119.654636231324	6
0	1875	3121.884576775535	7
0	1878	3124.970865143083	8
0	1880	3125.286687745254	7
0	1883	3131.004813671293	6
0	1885	3133.684529755477	7
0	1888	3134.144907022942	8
0	1890	3135.096843356486	7
0	1893	3135.751966554681	8
0	1895	3136.264686628619	7
0	1898	3140.23172939929	6
0	1900	3147.720545624376	7
0	1903	3152.29628326422	6
0	1905	3155.118413452053	5
0	1907	3162.770308369868	6
0	1910	3163.112151148458	5
0	1912	3165.984896675633	4
0	1914	3176.48488113518	3
0	1916	3177.356080529086	4
0	1919	3186.92863144599	3
0	1921	3191.703140095911	4
0	1924	3198.654712147943	5
0	1927	3203.64863427062	6
0	1930	3204.798886387529	5
0	1932	3217.997928510259	6
0	1935	3220.037096584619	7
0	1938	3225.128591367224	6
0	1940	3233.027382968724	5
0	1942	3233.959060403065	6
0	1945	3234.007200992582	7
0	1948	3238.785445525853	8
0	1950	3243.723930875364	7
0	1953	3245.008067888742	8
0	1955	3252.549367176191	9
0	1957	3253.483453109345	8
0	1960	3258.243076243321	9
0	1962	3260.168979127714	8
0	1965	3260.755719967955	9
0	1967	3261.138467567442	10
0	1969	3265.173866141	9
0	1972	3269.196831187751	10
0	1974	3274.049073420388	9
0	1977	3275.934376893264	10
0	1979	3279.548074890878	11
0	1981	3287.35834458794	10
0	1984	3289.586255127853	9
0	1987	3302.520418323022	8
0	1990	3311.198585941566	9
0	1992	3320.244481999964	8
0	1995	3322.337673322437	9
0	1997	3323.05362631304	8
0	2000	3323.40685428421	7
0	2003	3324.450630494617	6
0	2005	3335.523371552747	7
0	2008	3340.507940710986	6
0	2010	3341.865884882906	7
0	2013	3344.428637033804	6
0	2015	3347.052406235499	5
0	2017	3349.003779124683	6
0	2020	3350.729071777424	7
0	2023	3356.280876283591	6
0	2025	3363.176657193	7
0	2028	3367.639578980245	6
0	2030	3370.936311635472	5
0	2032	3371.161186182922	6
0	2035	3374.520254518006	5
0	2037	3383.179970698025	6
0	2040	3392.811207387794	5
0	2042	3395.471387639629	4
0	2044	3403.984282379911	5
0	2047	3406.390283575428	4
0	2049	3408.740127722611	5
0	2052	3410.233506217973	6
0	2055	3414.257927461145	7
0	2058	3416.89590794409	6
0	2060	3417.06713167737	5
0	2062	3420.754584817842	4
0	2064	3424.564579362781	3
0	2066	3425.229092404668	2
0	2068	3431.22642093199	1
0	2070	3432.046698206499	2
0	2073	3440.006999379723	3
0	2076	3443.346486939105	4
0	2079	3444.177230202551	5
0	2082	3449.855498715167	6
0	2085	3451.549049272603	7
0	2088	3451.704426011018	6
0	2090	3464.15864352391	7
0	2093	3464.87415205747	8
0	2095	3467.330552939564	9
0	2097	3468.728048837749	8
0	2100	3480.368246941087	7
0	2103	3488.087213339647	6
0	2105	3490.784121914889	5
0	2107	3494.139484293874	4
0	2109	3495.188698547288	3
0	2111	3503.57738230732	2
0	2113	3515.87495836565	3
0	2116	3522.126134583001	2
0	2118	3524.498522333621	1
0	2120	3531.046503100978	2
0	2123	3534.423791803181	1
0	2125	3544.213843566112	2
0	2128	3547.279760667879	3
0	2131	3552.110872772413	4
0	2134	3560.590174858262	5
0	2137	3562.18322248177	6
0	2140	3562.337437841356	5
0	2142	3563.376449143795	6
0	2145	3563.411920077313	7
0	2148	3570.660262281166	6
0	2150	3580.849480904671	7
0	2153	3581.976036818141	6
0	2155	3583.463762988817	5
0	2157	3586.696666079708	4
0	2159	3589.997884961709	5
0	2162	3590.680336393261	4
0	2164	3591.662956985282	3
0	2166	3591.738817329653	4
0	2169	3596.322589843722	3
0	2171	3596.417201164212	4
0	2174	3602.638802085679	3
0	2176	3616.60300432483	4
0	2179	3620.405665323427	3
0	2181	3632.204844883917	2
0	2183	3633.445181844156	1
0	2185	3641.585432240268	2
0	2188	3645.222372758809	3
0	2191	3651.3198641607	4
0	2194	3658.462714483879	5
0	2197	3659.613282424229	6
0	2200	3668.209863912982	5
0	2202	3668.621193209822	4
0	2204	3669.425423829703	3
0	2206	3670.535194114118	2
0	2208	3671.124444200543	3
0	2211	3679.265770217165	4
0	2214	3690.114180428696	3
0	2216	3691.361774169172	4
0	2219	3691.639608788048	5
0	2222	3692.253043505121	4
0	2224	3700.941732810165	5
0	2227	3706.63382010247	6
0	2230	3708.285276011473	5
0	2232	3708.475841735558	4
0	2234	3713.474688844223	5
0	2237	3722.45667983457	4
0	2239	3727.413961874884	5
0	2242	3730.474889954544	6
0	2245	3735.055203796716	7
0	2248	3741.429007366738	8
0	2250	3743.166476868917	7
0	2253	3746.494538013198	8
0	2255	3746.601835877706	7
0	2258	3750.978826955982	8
0	2260	3755.583332547136	7
0	2263	3757.959349573952	6
0	2265	3762.090362628942	5
0	2267	3763.724780032583	4
0	2269	3764.315943999032	3
0	2271	3770.976472624442	4
0	2274	3780.672242311642	5
0	2277	3784.584620056898	4
0	2279	3790.960688557163	5
0	2282	3800.955122238344	6
0	2285	3807.507170723177	7
0	2288	3813.025729534343	6
0	2290	3814.764645810245	5
0	2292	3820.599343667108	4
0	2294	3822.333590466345	5
0	2297	3822.950901102335	6
0	2300	3827.322180270425	5
0	2302	3831.764141475608	6
0	2305	3833.554984444973	5
0	2307	3842.65976160181	6
0	2310	3843.043760851574	5
0	2312	3843.737950310062	4
0	2314	3845.746399356515	5
0	2317	3845.787434519003	4
0	2319	3849.084305067034	5
0	2322	3851.459087490537	4
0	2324	3856.445903890242	5
0	2327	3858.728825661795	4
0	2329	3865.725944510615	3
0	2331	3872.030214475948	4
0	2334	3881.703622297911	3
0	2336	3888.063438929921	4
0	2339	3895.711631663863	5
0	2342	3896.259556809409	4
0	2344	3896.277586853454	5
0	2347	3900.910204215928	6
0	2350	3908.099215957723	5
0	2352	3924.771814398677	4
0	2354	3933.05553829268	3
0	2356	3936.898183882498	2
0	2358	3945.544973589048	3
0	2361	3946.76852819474	2
0	2363	3953.338457943563	3
0	2366	3966.184602107058	2
0	2368	3972.932373199616	1
0	2370	3977.763404557851	2
0	2373	3978.902579880868	3
0	2376	3982.675153189204	2
0	2378	3984.869757675132	1
0	2380	3990.621577995119	2
0	2383	3994.519074111699	3
0	2386	4003.540486864611	4
0	2389	4004.383527200082	3
0	2391	4024.11235349194	2
0	2393	4025.943133053307	3
0	2396	4035.158024364616	4
0	2399	4041.370200057349	5
0	2402	4043.669524031114	6
0	2405	4049.867025014513	7
0	2408	4054.524316158062	6
0	2410	4057.120923019277	7
0	2413	4059.313414345632	8
0	2415	4069.791578060368	7
0	2418	4078.037287137048	8
0	2420	4082.873964257422	7
0	2423	4085.595536808433	8
0	2425	4094.400589573166	7
0	2428	4096.260580835048	8
0	2430	4097.283335945821	7
0	2433	4097.971963000154	8
0	2435	4103.375727219315	9
0	2437	4110.616528845938	8
0	2440	4112.953135187952	7
0	2443	4114.636549068891	6
0	2445	4121.490124299266	5
0	2447	4128.956609192736	6
0	2450	4136.295697806262	5
0	2452	4136.501046717885	4
0	2454	4145.630383586407	5
0	2457	4148.151039517799	6
0	2460	4151.12382473145	7
0	2463	4151.247160224757	6
0	2465	4158.056628762434	7
0	2468	4161.471050427675	6
0	2470	4162.691760643461	7
0	2473	4168.083031490894	6
0	2475	4174.583694463094	7
0	2478	4176.847539002073	6
0	2480	4183.106879018448	7
0	2483	4192.643923518416	8
0	2485	4196.217833650859	7
0	2488	4197.19268538296	8
0	2490	4198.585671125078	7
0	2493	4199.220173901257	6
0	2495	4199.978398194425	5
0	2497	4201.289654355402	4
0	2499	4208.805805323065	5
0	2502	4209.80021290599	4
0	2504	4218.214487611065	5
0	2507	4221.406366204945	4
0	2509	4221.763262720986	3
0	2511	4223.797161909389	2
0	2513	4225.329390906556	3
0	2516	4226.001165590504	4
0	2519	4227.023456462051	5
0	2522	4232.541163013972	6
0	2525	4234.370280308753	5
0	2527	4235.451253236291	4
0	2529	4241.406336768534	5
0	2532	4245.265391575905	4
0	2534	4248.18366981885	5
0	2537	4253.04851191632	4
0	2539	4259.983499516889	3
0	2541	4261.83762314351	2
0	2543	4272.919515588904	3
0	2546	4274.72102266507	4
0	2549	4276.197543389935	5
0	2552	4283.877263543417	4
0	2554	4284.057917422807	5
0	2557	4287.093917764515	4
0	2559	4291.868471551839	3
0	2561	4297.745968285215	4
0	2564	4305.899353120101	5
0	2567	4310.257971712095	6
0	2570	4310.358354824845	5
0	2572	4321.060124283498	4
0	2574	4338.872210040945	3
0	2576	4359.166903898978	2
0	2578	4360.606795691853	3
0	2581	4366.568931137185	4
0	2584	4372.576987512459	3
0	2586	4374.593723256669	4
0	2589	4377.956571811852	5
0	2592	4384.318226884988	4
0	2594	4384.592920010475	3
0	2596	4387.941154524981	4
0	2599	4392.832404932761	3
0	2601	4394.749936338024	4
0	2604	4395.990464490148	5
0	2607	4400.162948711616	4
0	2609	4400.947875950992	5
0	2612	4404.155255467757	6
0	2615	4408.811496172083	7
0	2618	4410.610446227069	8
0	2620	4415.33682592504	7
0	2623	4415.564617781923	8
0	2625	4416.209419556486	9
0	2627	4426.634784453245	10
0	2629	4435.543826546573	11
0	2631	4442.607336831	10
0	2634	4445.329427257577	9
0	2637	4446.598890352822	10
0	2639	4453.377236852955	11
0	2641	4453.415795305838	10
0	2644	4456.443776724211	9
0	2647	4457.064915733709	10
0	2649	4457.896519688619	9
0	2652	4460.050957433997	10
0	2654	4460.969589827287	11
0	2656	4463.403768772239	10
0	2659	4467.250026940841	9
0	2662	4470.160375465446	8
0	2665	4473.842553731218	9
0	2667	4478.495356412337	10
0	2669	4479.760248887739	11
0	2671	4480.87610106889	10
0	2674	4481.423217697568	9
0	2677	4481.884539724924	10
0	2679	4482.240951126229	9
0	2682	4483.232216747407	8
0	2685	4487.225022762717	7
0	2688	4491.033575445894	8
0	2690	4498.240367884274	9
0	2692	4502.087167302322	8
0	2695	4511.447423169345	7
0	2698	4517.166706279255	6
0	2700	4523.014665681039	7
0	2703	4526.512963407273	6
0	2705	4528.036603692662	5
0	2707	4531.502873511978	4
0	2709	4544.005539535457	5
0	2712	4544.069897419331	4
0	2714	4556.946792731526	3
0	2716	4568.598699143112	4
0	2719	4569.432696053329	5
0	2722	4574.476500269191	6
0	2725	4575.10860437532	7
0	2728	4578.760867338123	6
0	2730	4582.766986678463	7
0	2733	4583.475401310082	8
0	2735	4586.551606595003	9
0	2737	4588.124737005414	8
0	2740	4590.472834996097	9
0	2742	4591.414455838065	10
0	2744	4592.020062874637	11
0	2746	4594.926382374804	10
0	2749	4600.047878809386	9
0	2752	4601.103898692974	8
0	2755	4615.840670569042	7
0	2758	4617.133205305783	8
0	2760	4617.831068992242	9
0	2762	4620.034677990151	10
0	2764	4620.380770850784	9
0	2767	4624.983480874931	8
0	2770	4628.412516528632	9
0	2772	4629.851289118242	10
0	2774	4636.920930194967	11
0	2776	4644.636150834204	10
0	2779	4648.018699827603	11
0	2781	4651.735965023419	12
0	2783	4652.965500339018	13
0	2785	4653.544518418385	12
0	2788	4653.968162220227	11
0	2791	4661.025748735395	12
0	2793	4664.176650599687	13
0	2795	4664.975542945809	14
0	2797	4668.064839775745	13
0	2800	4670.810630337993	12
0	2803	4671.827400789892	13
0	2805	4674.651802291005	12
0	2808	4676.86597730028	11
0	2811	4679.127538491349	12
0	2813	4679.133481082602	11
0	2816	4680.440521294292	10
0	2819	4681.284592707278	11
0	2821	4681.448938800401	10
0	2824	4694.050671665967	9
0	2827	4701.414249374827	8
0	2830	4705.136690911808	7
0	2833	4705.303887111078	6
0	2835	4711.710653165452	7
0	2838	4720.83176782455	8
0	2840	4725.243168896404	7
0	2843	4736.761971634752	8
0	2845	4741.50917445014	7
0	2848	4741.705119655129	6
0	2850	4741.986299568798	7
0	2853	4742.858116920711	6
0	2855	4747.023623013911	5
0	2857	4747.509823267297	4
0	2859	4751.193200976945	3
0	2861	4759.261748282129	4
0	2864	4769.043017704206	3
0	2866	4771.137930224491	2
0	2868	4771.284970559777	3
0	2871	4773.551139419411	4
0	2874	4775.957931114233	3
0	2876	4778.841225073201	4
0	2879	4781.400143663388	3
0	2881	4784.005734024894	2
0	2883	4814.771721717728	1
0	2885	4829.902053666697	2
0	2888	4853.126130173608	3
0	2891	4857.33540435042	4
0	2894	4869.554556759859	5
0	2897	4870.775877347532	6
0	2900	4874.212623575951	5
0	2902	4878.591133410645	6
0	2905	4879.305867251467	7
0	2908	4880.332237151961	6
0	2910	4897.429568706656	7
0	2913	4902.991009569178	6
0	2915	4903.115919094367	7
0	2918	4907.554964813719	6
0	2920	4909.113824629488	5
0	2922	4910.975896408249	6
0	2925	4914.014021597656	5
0	2927	4917.592197388838	6
0	2930	4921.974227970442	5
0	2932	4922.168070974934	6
0	2935	4922.452253707535	7
0	2938	4924.937948036734	8
0	2940	4932.238520598266	9
0	2942	4940.424227907783	8
0	2945	4942.724144409193	7
0	2948	4950.864437688601	6
0	2950	4951.151974939091	5
0	2952	4953.296770775302	6
0	2955	4954.002475930804	7
0	2958	4955.296246591242	8
0	2960	4956.858364115778	9
0	2962	4961.252183554367	8
0	2965	4965.993863519202	7
0	2968	4976.923341127715	6
0	2970	4980.20608090211	7
0	2973	4982.904135745138	8
0	2975	4986.231586916132	7
0	2978	4986.564037783022	6
0	2980	4992.815332765588	7
0	2983	5000.021291069574	8
0	2985	5003.668812971756	7
0	2988	5006.184733337532	6
0	2990	5006.9768270102	7
0	2993	5007.067491939939	6
0	2995	5016.448239815419	5
0	2997	5018.123693214063	6
0	3000	5021.428587634516	7
0	3003	5028.503732715484	6
0	3005	5031.221238982163	7
0	3008	5032.339274286348	6
0	3010	5038.109753491024	5
0	3012	5038.194658689722	4
0	3014	5039.342296250874	5
0	3017	5044.564354399944	4
0	3019	5045.601891645291	3
0	3021	5048.223068285203	4
0	3024	5051.551233157915	3
0	3026	5055.564343269968	4
0	3029	5055.838479856579	3
0	3031	5059.862923145977	4
0	3034	5060.109321480726	5
0	3037	5063.680747451246	4
0	3039	5065.24570998207	5
0	3042	5065.476623657114	4
0	3044	5066.584704986189	5
0	3047	5067.250809595565	4
0	3049	5070.844273689757	3
0	3051	5073.776138806733	4
0	3054	5082.099244788426	3
0	3056	5082.663625048912	4
0	3059	5086.12285793321	5
0	3062	5088.750203322454	4
0	3064	5090.364673845488	5
0	3067	5094.027381056761	4
0	3069	5094.318654482637	3
0	3071	5094.356252921545	2
0	3073	5105.026100432264	1
0	3075	5105.964638962491	2
0	3078	5107.377073409348	1
0	3080	5119.878045687971	0
0	3082	5126.067100153395	1
0	3085	5127.153255796247	0
0	3087	5139.135243041044	1
0	3090	5143.749204132065	2
0	3093	5146.71032115187	3
0	3096	5147.465207395239	2
0	3098	5153.898687256097	3
0	3101	5155.649326311121	4
0	3104	5160.758885666603	5
0	3107	5166.578634367937	4
0	3109	5168.382216183581	5
0	3112	5170.304247195877	6
0	3115	5171.771831359104	7
0	3118	5171.87938581789	6
0	3120	5177.515979250331	5
0	3122	5187.438771232893	6
0	3125	5190.955899371631	5
0	3127	5202.429553346396	4
0	3129	5213.437979580808	5
0	3132	5221.858544935189	6
0	3135	5222.793672062357	5
0	3137	5226.518885621444	4
0	3139	5230.278358106309	3
0	3141	5241.883702580496	2
0	3143	5252.581602696301	1
0	3145	5259.528181647347	2
0	3148	5262.328710790358	3
0	3151	5262.619396008234	4
0	3154	5268.867364547606	5
0	3157	5269.563833515344	6
0	3160	5280.718274276728	7
0	3163	5283.815268841325	6
0	3165	5288.337502924131	5
0	3167	5295.800966716229	6
0	3170	5304.356012799118	5
0	3172	5309.232724249281	6
0	3175	5309.601543307916	7
0	3178	5310.619245639851	6
0	3180	5313.412882270596	5
0	3182	5328.904300095795	4
0	3184	5332.133662077665	3
0	3186	5333.942276613836	4
0	3189	5334.679908546664	5
0	3192	5337.35715301428	6
0	3195	5343.934268538631	7
0	3198	5349.089071492768	6
0	3200	5350.004814330723	5
0	3202	5351.346772609791	6
0	3205	5353.363711501896	7
0	3208	5354.428510943988	8
0	3210	5354.663836278952	7
0	3213	5357.989716261343	8
0	3215	5358.931937264813	7
0	3218	5359.682265359082	8
0	3220	5363.030554564424	9
0	3222	5373.264930311076	8
0	3225	5374.665218523174	7
0	3228	5376.456543588656	6
0	3230	5387.414214830642	7
0	3233	5387.926900864774	8
0	3235	5389.563255731814	9
0	3237	5390.548803034841	8
0	3240	5392.567565877117	9
0	3242	5393.027811966401	8
0	3245	5394.981563287457	9
0	3247	5396.696529083052	8
0	3250	5399.667039879652	7
0	3253	5403.173942591381	8
0	3255	5416.033935093181	9
0	3257	5422.113868517912	10
0	3259	5429.657374364969	9
0	3262	5430.253856968318	8
0	3265	5433.355511587001	9
0	3267	5433.39821949448	8
0	3270	5433.602951112766	7
0	3273	5440.446380689663	6
0	3275	5441.565212660373	7
0	3278	5447.829939463603	6
0	3280	5457.13109727026	7
0	3283	5458.128948592723	6
0	3285	5461.157923644076	7
0	3288	5464.262481943044	6
0	3290	5468.792824275611	7
0	3293	5468.90241727713	6
0	3295	5474.944235022913	7
0	3298	5476.526027729958	8
0	3300	5478.144066519984	9
0	3302	5479.823115586111	8
0	3305	5488.011443245385	9
0	3307	5494.563419420797	10
0	3309	5501.003210235912	11
0	3311	5507.003377902377	12
0	3313	5509.207477827695	11
0	3316	5510.833825542914	10
0	3319	5512.863123630279	9
0	3322	5513.496672507716	10
0	3324	5514.653326132514	9
0	3327	5520.425813717894	10
0	3329	5520.870599777432	11
0	3331	5521.096576186623	10
0	3334	5525.371818416356	11
0	3336	5526.646111223622	10
0	3339	5526.860080050899	9
0	3342	5527.548992909104	10
0	3344	5536.548035322876	9
0	3347	5538.990018483399	8
0	3350	5544.074773064784	7
0	3353	5556.446076386034	8
0	3355	5558.92969918782	7
0	3358	5561.986188493567	6
0	3360	5565.16487444874	5
0	3362	5570.351178284154	4
0	3364	5573.130248477609	5
0	3367	5573.230056846032	6
0	3370	5573.980158266695	7
0	3373	5575.988385340808	6
0	3375	5576.576516140154	5
0	3377	5580.42384587014	4
0	3379	5585.861565792797	3
0	3381	5596.482307424478	2
0	3383	5609.579573794293	1
0	3385	5610.97261498833	2
0	3388	5618.662540728492	3
0	3391	5619.631521664537	2
0	3393	5622.282141090017	1
0	3395	5624.534065737484	2
0	3398	5625.0292420212	3
0	3401	5633.268288980972	4
0	3404	5634.311020012924	3
0	3406	5634.928714502609	4
0	3409	5641.259191381077	5
0	3412	5642.880038937486	6
0	3415	5645.942744297111	5
0	3417	5648.690511787101	6
0	3420	5653.985132096853	7
0	3423	5654.648563117042	6
0	3425	5660.907095203497	7
0	3428	5662.558777189946	6
0	3430	5665.101240493334	5
0	3432	5671.563163244158	4
0	3434	5672.677691663811	5
0	3437	5674.11892654385	6
0	3440	5674.773403073694	5
0	3442	5677.779190662637	4
0	3444	5678.78065883388	5
0	3447	5681.148829768524	6
0	3450	5691.118842575961	7
0	3453	5695.930933793836	8
0	3455	5698.897352448275	7
0	3458	5706.139192370972	6
0	3460	5713.154143150953	7
0	3463	5717.673696902345	8
0	3465	5719.963453119603	9
0	3467	5723.563767398869	10
0	3469	5727.334746860273	9
0	3472	5727.709349665847	10
0	3474	5727.915294007525	9
0	3477	5731.281545678647	8
0	3480	5734.967220599359	9
0	3482	5736.544518722048	8
0	3485	5740.597143375673	9
0	3487	5744.298496225169	10
0	3489	5745.087932580287	11
0	3491	5746.94754266897	12
0	3493	5751.940049733712	13
0	3495	5753.815785402622	14
0	3497	5757.007200872524	13
0	3500	5759.416646253739	14
0	3502	5761.67484910748	13
0	3505	5761.967741338822	14
0	3507	5765.450892210063	13
0	3510	5768.928405475116	12
0	3513	5772.224173593235	13
0	3515	5775.351142507333	14
0	3517	5784.207875545308	13
0	3520	5789.780550872744	12
0	3523	5793.273890450229	11
0	3526	5798.986157616953	10
0	3529	5815.750118314004	11
0	3531	5817.438522664125	12
0	3533	5818.509355559894	11
0	3536	5819.45007075507	12
0	3538	5819.843562762167	11
0	3541	5822.746022386612	10
0	3544	5826.243689537799	9
0	3547	5826.894287152426	10
0	3549	5828.038010211781	11
0	3551	5830.160357678769	10
0	3554	5835.159032974616	9
0	3557	5837.849538908144	10
0	3559	5838.369117842983	9
0	3562	5841.578761296374	8
0	3565	5851.492361304253	7
0	3568	5851.628989010773	6
0	3570	5852.349812721086	5
0	3572	5855.103213014148	6
0	3575	5855.741177346126	7
0	3578	5856.962323062222	6
0	3580	5859.285328338666	7
0	3583	5867.182590036955	8
0	3585	5871.087194825031	9
0	3587	5875.725845471243	8
0	3590	5885.213580619936	7
0	3593	5887.33576752494	6
0	3595	5891.336081640425	7
0	3598	5891.524850212165	6
0	3600	5918.251674793782	5
0	3602	5921.084480313304	4
0	3604	5923.619230184056	3
0	3606	5923.767301964558	4
0	3609	5934.274981128841	5
0	3612	5942.821862244886	4
0	3614	5945.935613177478	3
0	3616	5946.023524955153	4
0	3619	5947.385438717379	5
0	3622	5953.492173313446	6
0	3625	5954.169759367939	7
0	3628	5957.924963287748	8
0	3630	5960.255200241112	9
0	3632	5966.563552147818	10
0	3634	5967.986254153926	9
0	3637	5969.629514017167	10
0	3639	5972.704890984773	9
0	3642	5972.863935138452	8
0	3645	5973.474028716732	7
0	3648	5982.161077819845	6
0	3650	5985.213005297976	5
0	3652	5992.474512330868	4
0	3654	5998.78394702322	3
0	3656	6008.330477518888	4
0	3659	6009.252500127	5
0	3662	6011.290960021113	6
0	3665	6015.561415017273	5
0	3667	6016.481177460762	4
0	3669	6020.347393202552	5
0	3672	6021.41138396959	6
0	3675	6027.032065608119	7
0	3678	6027.884856326927	6
0	3680	6030.859903816202	5
0	3682	6032.181271628074	4
0	3684	6044.942027189578	3
0	3686	6046.177238865344	4
0	3689	6046.72390871995	5
0	3692	6047.350845212541	6
0	3695	6048.301873352813	7
0	3698	6052.180561145297	8
0	3700	6057.469826075966	9
0	3702	6059.363691595086	8
0	3705	6061.210794022758	7
0	3708	6065.6949725982	8
0	3710	6072.028916467485	9
0	3712	6073.767430705451	8
0	3715	6077.169436686747	7
0	3718	6077.44095021569	6
0	3720	6077.642954886129	7
0	3723	6079.790759891435	6
0	3725	6082.18053490688	5
0	3727	6086.357616244935	4
0	3729	6088.121868182294	5
0	3732	6091.066277831042	4
0	3734	6091.693592040292	5
0	3737	6099.97889029399	4
0	3739	6102.407475368314	3
0	3741	6111.633363553063	4
0	3744	6118.305481156357	5
0	3747	6122.622349098649	6
0	3750	6123.624553904192	5
0	3752	6125.301173273589	4
0	3754	6125.723699674006	3
0	3756	6128.024598696775	4
0	3759	6133.731281389273	5
0	3762	6134.284468026789	6
0	3765	6134.759472995641	5
0	3767	6134.784434194183	4
0	3769	6146.800291462292	5
0	3772	6150.29228959685	4
0	3774	6152.922371699789	3
0	3776	6161.000084694608	4
0	3779	6161.937779941157	3
0	3781	6166.147832818199	4
0	3784	6168.835888277459	5
0	3787	6169.60327243068	4
0	3789	6173.564194240987	5
0	3792	6174.447676599605	4
0	3794	6180.184129821616	3
0	3796	6185.170179872666	2
0	3798	6189.790288834953	3
0	3801	6196.626858365597	2
0	3803	6210.354050021797	1
0	3805	6214.067255841078	0
0	3807	6217.92642300507	1
0	3810	6220.704343760376	2
0	3813	6223.559288804046	1
0	3815	6224.040123143184	2
0	3818	6225.597580691783	3
0	3821	6237.779998836892	2
0	3823	6250.9202055198	1
0	3825	6251.377229801502	0
0	3827	6257.534102656095	1
0	3830	6266.92993873585	0
0	3832	6276.656605900049	1
0	3835	6277.526582196995	2
0	3838	6287.179896403094	3
0	3841	6302.134727248689	2
0	3843	6304.950360612433	3
0	3846	6305.9270893055	2
0	3848	6308.745811663309	3
0	3851	6310.094286394599	4
0	3854	6313.167458763886	3
0	3856	6321.202688498101	4
0	3859	6322.571220101478	3
0	3861	6328.39429289446	4
0	3864	6328.535026712763	5
0	3867	6339.602650569503	6
0	3870	6341.983928318424	5
0	3872	6343.413430260849	6
0	3875	6343.491078705138	5
0	3877	6354.255528532259	4
0	3879	6358.143000113089	3
0	3881	6360.852448016373	4
0	3884	6362.51328623023	3
0	3886	6366.422392106281	2
0	3888	6367.650912542144	1
0	3890	6374.195079999325	2
0	3893	6374.855494921925	1
0	3895	6378.103247486225	2
0	3898	6378.155624535412	3
0	3901	6380.794721654621	2
0	3903	6390.901556255796	3
0	3906	6404.815402171125	4
0	3909	6407.943479790929	5
0	3912	6413.846817506296	6
0	3915	6426.569147980081	5
0	3917	6426.751741385699	4
0	3919	6427.0630593227	3
0	3921	6442.265513350902	4
0	3924	6442.73902569961	5
0	3927	6443.300989004318	4
0	3929	6444.903127263276	5
0	3932	6450.446493859115	6
0	3935	6450.725980537103	5
0	3937	6457.728041864413	6
0	3940	6460.228262723596	7
0	3943	6460.908523255761	6
0	3945	6461.780627243415	5
0	3947	6463.686840016418	4
0	3949	6464.397788998586	5
0	3952	6467.806137524303	4
0	3954	6468.793488274477	5
0	3957	6471.028733983616	4
0	3959	6480.952808519593	3
0	3961	6487.046549781251	4
0	3964	6488.114743710508	5
0	3967	6502.010354525054	4
0	3969	6503.912146187007	3
0	3971	6506.343833725105	4
0	3974	6516.490336923905	3
0	3976	6539.126220552375	2
0	3978	6544.446155392714	1
0	3980	6564.252773281605	0
0	3982	6574.908043192873	1
0	3985	6593.148564043223	2
0	3988	6598.879208753872	1
0	3990	6600.191422379667	2
0	3993	6604.861161168507	3
0	3996	6616.207569984543	4
0	3999	6618.016373807023	5
0	4002	6618.614877329186	6
0	4005	6623.489652119344	7
0	4008	6623.80382473519	6
0	4010	6625.632867932428	5
0	4012	6625.641680598551	6
0	4015	6627.886001262879	5
0	4017	6634.828732085578	6
0	4020	6648.042172196835	5
0	4022	6648.063106358859	6
0	4025	6648.392162410105	7
0	4028	6649.336292868304	8
0	4030	6649.414049355499	7
0	4033	6650.13096914698	6
0	4035	6650.663221289385	7
0	4038	6652.954584304146	8
0	4040	6653.455580023179	9
0	4042	6653.758472214704	8
0	4045	6657.634636112691	9
0	4047	6664.121355764094	8
0	4050	6668.365241763315	9
0	4052	6668.548577609612	8
0	4055	6675.094173078291	7
0	4058	6678.659806768287	6
0	4060	6688.203657424521	7
0	4063	6688.853990344635	6
0	4065	6694.302895817965	5
0	4067	6694.619837025562	4
0	4069	6707.474912628746	3
0	4071	6708.939101026368	4
0	4074	6729.425041165118	3
0	4076	6729.735276451713	4
0	4079	6729.802406856578	5
0	4082	6732.000314979144	6
0	4085	6743.686984371152	5
0	4087	6746.47564038225	4
0	4089	6759.33765448758	5
0	4092	6761.088922126775	4
0	4094	6766.496844417728	3
0	4096	6774.098440131895	4
0	4099	6777.239723075986	5
0	4102	6813.559037582618	4
0	4104	6814.210557124358	5
0	4107	6814.349574287943	6
0	4110	6814.626013906366	5
0	4112	6824.783753158949	6
0	4115	6826.204161010854	7
0	4118	6827.813280877069	6
0	4120	6835.464668465405	5
0	4122	6841.344057827749	6
0	4125	6841.526695246558	5
0	4127	6851.677571415556	4
0	4129	6853.576689265979	5
0	4132	6853.712441596038	4
0	4134	6855.356080358588	5
0	4137	6860.05955346812	6
0	4140	6864.702216558464	7
0	4143	6865.923139279952	6
0	4145	6867.159467005921	5
0	4147	6867.326458811212	6
0	4150	6868.920369050676	5
0	4152	6871.059674114232	6
0	4155	6872.86690246892	5
0	4157	6874.780504153653	4
0	4159	6876.030855787271	5
0	4162	6878.209755889973	4
0	4164	6883.938596976319	5
0	4167	6885.705923500656	6
0	4170	6889.229282013045	5
0	4172	6892.923976627867	6
0	4175	6893.214145982529	5
0	4177	6898.913671026374	4
0	4179	6899.054791212881	3
0	4181	6901.295358366798	4
0	4184	6904.611510923047	5
0	4187	6904.88361405182	6
0	4190	6912.818346587451	5
0	4192	6915.221744003268	6
0	4195	6923.619819204637	5
0	4197	6924.245019678684	4
0	4199	6929.366043559481	5
0	4202	6934.928239587657	4
0	4204	6937.463113369174	3
0	4206	6946.146442720357	2
0	4208	6948.44047401863	3
0	4211	6950.684063599159	4
0	4214	6952.720053171197	5
0	4217	6956.735321475857	4
0	4219	6965.580055432949	5
0	4222	6969.10972675329	6
0	4225	6974.593298188748	5
0	4227	6980.377736405587	6
0	4230	6988.631799727869	7
0	4233	6993.3507685671	6
0	4235	6996.715896052612	5
0	4237	6998.195997839847	4
0	4239	7004.2500524972	5
0	4242	7010.639480453882	4
0	4244	7012.131932079838	5
0	4247	7014.548074787105	4
0	4249	7021.424024203631	5
0	4252	7024.835887169779	4
0	4254	7026.386274261763	5
0	4257	7032.410735067404	4
0	4259	7032.859575412787	5
0	4262	7038.703693262074	4
0	4264	7040.125179383061	5
0	4267	7053.526065816704	4
0	4269	7056.805107679477	3
0	4271	7057.244369186925	4
0	4274	7059.110224302029	5
0	4277	7085.314440980045	4
0	4279	7092.698812184461	5
0	4282	7093.730947022752	6
0	4285	7100.45944710652	5
0	4287	7103.184194094491	6
0	4290	7103.868701492546	7
0	4293	7107.127560524821	6
0	4295	7108.87402498811	7
0	4298	7108.918016461504	6
0	4300	7113.133819615223	5
0	4302	7116.140802584777	6
0	4305	7119.193207198253	5
0	4307	7119.595744184414	4
0	4309	7119.847913541425	5
0	4312	7125.96511299158	6
0	4315	7129.825143122723	5
0	4317	7130.625289616592	6
0	4320	7132.48946922512	5
0	4322	7134.877415843492	4
0	4324	7139.155395867953	3
0	4326	7148.534716222539	4
0	4329	7154.844558708533	5
0	4332	7158.887628088421	6
0	4335	7159.387650985979	7
0	4338	7159.769550892739	6
0	4340	7166.127442843708	5
0	4342	7168.336606203016	4
0	4344	7170.139748416656	5
0	4347	7171.821640252384	4
0	4349	7171.857567870586	3
0	4351	7175.541093343914	2
0	4353	7178.227239621149	3
0	4356	7181.376764670206	4
0	4359	7182.263028211943	3
0	4361	7194.568959332897	2
0	4363	7198.518273445361	3
0	4366	7206.293523204046	2
0	4368	7208.089847997997	3
0	4371	7209.50928603969	4
0	4374	7212.332707294901	5
0	4377	7225.786765344446	6
0	4380	7226.311871352651	5
0	4382	7234.757235427512	4
0	4384	7238.458444546766	3
0	4386	7238.918938405158	2
0	4388	7244.540275164312	3
0	4391	7257.762170742338	2
0	4393	7265.247091964932	3
0	4396	7267.123396393068	2
0	4398	7269.79675089747	1
0	4400	7277.164661942322	0
0	4402	7280.835563210715	1
0	4405	7287.636006605709	2
0	4408	7300.981753733609	1
0	4410	7301.055769005781	0
0	4412	7316.062155503468	1
0	4415	7323.984198760514	0
0	4417	7326.938621508619	1
0	4420	7328.216310856101	2
0	4423	7332.065704917764	1
0	4425	7337.2243560978	0
0	4427	7337.37791220721	1
0	4430	7337.39041865598	2
0	4433	7337.726288306005	3
0	4436	7339.218368231735	4
0	4439	7339.480753935577	5
0	4442	7346.060270240462	4
0	4444	7349.286014659411	5
0	4447	7360.606240296635	6
0	4450	7361.396167893844	7
0	4453	7363.469941738682	6
0	4455	7363.626177418011	5
0	4457	7368.05353355173	6
0	4460	7371.738747693898	5
0	4462	7372.802102835866	6
0	4465	7374.864915003327	5
0	4467	7377.576889084742	6
0	4470	7378.868042576991	5
0	4472	7393.453225436268	4
0	4474	7398.360672920231	5
0	4477	7398.909120438201	6
0	4480	7410.947659816008	5
0	4482	7412.667580176918	6
0	4485	7418.316534077333	5
0	4487	7424.477732549702	6
0	4490	7424.996138832664	5
0	4492	7430.23453688751	4
0	4494	7443.989339415404	5
0	4497	7445.58500353321	4
0	4499	7446.23869709988	5
0	4502	7450.482613012562	4
0	4504	7452.566762779217	3
0	4506	7452.774752861653	2
0	4508	7461.543937785621	3
0	4511	7468.09102361714	2
0	4513	7472.453168858829	3
0	4516	7477.738885145043	4
0	4519	7478.518647219136	5
0	4522	7480.662001291744	4
0	4524	7483.509728598791	3
0	4526	7487.444996055882	4
0	4529	7487.577747465482	5
0	4532	7491.677048216739	6
0	4535	7491.818670938931	5
0	4537	7497.544712160325	4
0	4539	7505.882528198396	5
0	4542	7505.926670113118	6
0	4545	7508.129604570203	7
0	4548	7513.937257853125	8
0	4550	7515.668607362978	9
0	4552	7520.32005147555	10
0	4554	7521.479093394846	9
0	4557	7522.709954420678	10
0	4559	7523.927040285913	9
0	4562	7528.277624732613	10
0	4564	7533.47082249458	9
0	4567	7533.563545948347	10
0	4569	7537.528843547556	9
0	4572	7543.149421648126	8
0	4575	7543.300422975187	9
0	4577	7547.255638609929	8
0	4580	7555.240285815104	7
0	4583	7558.914901760835	6
0	4585	7560.452532309534	5
0	4587	7561.437935860253	6
0	4590	7565.436085130625	5
0	4592	7567.331919113938	4
0	4594	7571.783468175222	3
0	4596	7574.922595018796	4
0	4599	7584.001250930723	3
0	4601	7586.801621847099	4
0	4604	7588.32451622051	5
0	4607	7588.456676913368	6
0	4610	7589.66280974593	5
0	4612	7591.065375733035	4
0	4614	7598.987298030434	5
0	4617	7599.862649847687	4
0	4619	7612.702501816956	5
0	4622	7615.215499757922	4
0	4624	7615.991583898686	3
0	4626	7618.415917238202	2
0	4628	7627.521291752348	3
0	4631	7633.457523857335	2
0	4633	7635.022709687342	1
0	4635	7636.019104889034	2
0	4638	7643.515796623657	1
0	4640	7658.765936568719	2
0	4643	7687.268195209053	3
0	4646	7692.492091512602	2
0	4648	7693.857626151307	1
0	4650	7695.309352176555	0
0	4652	7697.002312854037	1
0	4655	7698.210166499799	2
0	4658	7700.029576115617	3
0	4661	7700.144457667484	4
0	4664	7708.194106584213	3
0	4666	7709.016176317205	4
0	4669	7711.206124161228	3
0	4671	7737.635159292581	2
0	4673	7740.3090256425	1
0	4675	7750.915021009564	2
0	4678	7752.697354356847	3
0	4681	7755.722961819127	2
0	4683	7759.890187699686	1
0	4685	7769.78373023234	2
0	4688	7771.534920854085	3
0	4691	7772.533676039867	4
0	4694	7776.065710154101	3
0	4696	7776.723742843508	2
0	4698	7778.183657515612	3
0	4701	7786.667459634548	2
0	4703	7792.416724004906	1
0	4705	7794.372674752128	2
0	4708	7795.485394551649	3
0	4711	7795.639160388532	4
0	4714	7796.007221798585	5
0	4717	7805.470007319674	6
0	4720	7806.383532948226	7
0	4723	7807.134948948558	6
0	4725	7809.142421420657	5
0	4727	7810.684985280349	6
0	4730	7811.934820502481	7
0	4733	7814.792744879413	8
0	4735	7815.282049642968	9
0	4737	7815.795386343893	8
0	4740	7818.742509701879	7
0	4743	7825.540162387607	8
0	4745	7825.646453391422	9
0	4747	7832.30016187213	10
0	4749	7833.113955098285	11
0	4751	7834.559662334677	12
0	4753	7838.139093840136	13
0	4755	7839.404750493924	14
0	4757	7846.280028098878	15
0	4759	7847.069659599265	14
0	4762	7855.082909973771	13
0	4765	7857.25459593329	14
0	4767	7858.188179148686	15
0	4769	7859.948106883959	16
0	4771	7861.58834934614	17
0	4773	7862.500742423361	18
0	4775	7865.081526646587	17
0	4778	7866.754015358835	16
0	4781	7868.623061818849	17
0	4783	7870.178410046189	16
0	4786	7873.879095837811	15
0	4789	7881.895087558269	14
0	4792	7888.349943443123	15
0	4794	7901.884285543094	16
0	4796	7904.683999837925	17
0	4798	7904.749405555819	16
0	4801	7905.647255402673	15
0	4804	7906.37835498397	16
0	4806	7908.127530880713	15
0	4809	7917.829914730267	14
0	4812	7920.852172324444	13
0	4815	7927.062658792285	12
0	4818	7928.150941305738	13
0	4820	7931.358202723626	14
0	4822	7932.481553501316	15
0	4824	7937.900816200839	14
0	4827	7941.033113635009	15
0	4829	7943.088798187692	14
0	4832	7947.714568370148	15
0	4834	7948.002206034587	14
0	4837	7949.977587571355	13
0	4840	7955.621647112883	12
0	4843	7961.379299449031	11
0	4846	7967.168236435152	10
0	4849	7967.721676013363	9
0	4852	7969.903574104319	8
0	4855	7973.002817045126	9
0	4857	7977.883407805404	8
0	4860	7977.964976357404	7
0	4863	7979.472452706391	8
0	4865	7980.218158035076	7
0	4868	7985.09725302157	6
0	4870	8001.443965374833	7
0	4873	8003.575063068932	6
0	4875	8007.836830352582	7
0	4878	8012.283683159925	8
0	4880	8012.775944976894	9
0	4882	8017.989877363016	10
0	4884	8018.151665525963	9
0	4887	8024.520060019411	10
0	4889	8028.262457887308	9
0	4892	8031.259948974056	8
0	4895	8040.617993520063	9
0	4897	8040.876750006301	10
0	4899	8050.735427810409	9
0	4902	8054.192656885636	8
0	4905	8058.073741964659	7
0	4908	8063.690227332741	6
0	4910	8065.718512856071	7
0	4913	8072.758877370957	6
0	4915	8075.983821516388	5
0	4917	8077.522757142266	6
0	4920	8090.226512892942	5
0	4922	8090.793966622706	4
0	4924	8093.465134514364	3
0	4926	8098.484522544792	2
0	4928	8104.216903796514	1
0	4930	8106.017793494851	2
0	4933	8108.989047269794	1
0	4935	8110.791652030882	2
0	4938	8114.5130729733	3
0	4941	8118.136680111102	4
0	4944	8119.921175702303	5
0	4947	8120.264255188367	4
0	4949	8133.755880814693	5
0	4952	8134.180587622681	6
0	4955	8136.274813942001	5
0	4957	8144.11256770904	4
0	4959	8156.135210155686	3
0	4961	8166.449418370144	4
0	4964	8177.905055401867	3
0	4966	8184.411461550759	4
0	4969	8187.199201895097	5
0	4972	8190.719103646682	6
0	4975	8191.202752035149	5
0	4977	8194.909851214802	6
0	4980	8198.504728572538	5
0	4982	8200.255756613523	4
0	4984	8202.50925439057	5
0	4987	8209.801469588362	4
0	4989	8213.445719252191	5
0	4992	8230.445257004314	6
0	4995	8233.8162309716	5
0	4997	8242.955378424741	4
0	4999	8249.054806265001	5
0	5002	8252.649105267718	6
0	5005	8261.095062574739	7
0	5008	8262.889902090386	6
0	5010	8263.527705340377	7
0	5013	8264.198798212454	8
0	5015	8269.68221956957	7
0	5018	8270.538202870557	8
0	5020	8272.287052738548	7
0	5023	8273.929746804098	8
0	5025	8274.585887645902	9
0	5027	8289.116796304781	10
0	5029	8293.327494237637	11
0	5031	8293.883608364524	10
0	5034	8295.880087355005	9
0	5037	8297.558502943332	8
0	5040	8300.72017330075	7
0	5043	8302.110481261535	8
0	5045	8305.17872752049	7
0	5048	8306.774637601535	8
0	5050	8309.410827877024	7
0	5053	8313.585307198974	6
0	5055	8315.015145778595	5
0	5057	8316.230948010321	6
0	5060	8317.258220623785	7
0	5063	8322.790813934225	8
0	5065	8323.121486805054	9
0	5067	8323.392221824681	8
0	5070	8324.095423881468	9
0	5072	8324.759446455314	8
0	5075	8325.140501388801	7
0	5078	8327.69465165755	6
0	5080	8328.902525174027	5
0	5082	8336.00511922299	6
0	5085	8360.268297979027	7
0	5088	8361.183195000261	6
0	5090	8371.571542468556	5
0	5092	8391.340105628224	6
0	5095	8394.548751061294	7
0	5098	8404.713224384969	6
0	5100	8407.79065323097	5
0	5102	8409.207303326023	6
0	5105	8410.986129124583	5
0	5107	8413.796160383293	4
0	5109	8421.915152892195	3
0	5111	8424.194224119952	2
0	5113	8424.968357880621	3
0	5116	8426.899047439079	2
0	5118	8427.419211009632	1
0	5120	8433.695717803205	2
0	5123	8435.598458953518	1
0	5125	8438.08528897711	2
0	5128	8440.152777906137	1
0	5130	8440.723004003236	2
0	5133	8459.203213015324	3
0	5136	8461.544345931771	2
0	5138	8469.125950459919	3
0	5141	8476.675071150292	2
0	5143	8482.376483857809	3
0	5146	8483.733122685979	2
0	5148	8492.936577832814	3
0	5151	8493.02403210195	2
0	5153	8503.382744248827	3
0	5156	8505.329121643857	2
0	5158	8510.239616072614	3
0	5161	8519.729065509978	4
0	5164	8522.168786500421	3
0	5166	8524.929074508107	2
0	5168	8526.27914356346	3
0	5171	8528.13727092738	2
0	5173	8533.118855555607	3
0	5176	8536.186871695869	2
0	5178	8539.420885776924	3
0	5181	8547.178830991089	2
0	5183	8552.708009667999	1
0	5185	8556.6370105899	2
0	5188	8563.344345870095	3
0	5191	8570.109139649298	2
0	5193	8573.117592744833	3
0	5196	8578.074096268857	4
0	5199	8578.117195561084	3
0	5201	8579.789252980698	4
0	5204	8581.494569338416	5
0	5207	8583.253567475316	4
0	5209	8585.567840547839	3
0	5211	8586.532759942639	4
0	5214	8590.723435589269	5
0	5217	8601.263646408863	6
0	5220	8601.52091732711	7
0	5223	8601.85223783126	6
0	5225	8602.27725776169	5
0	5227	8602.302062153784	6
0	5230	8603.980992425904	5
0	5232	8606.495874965561	4
0	5234	8623.550832718251	5
0	5237	8624.818560583631	4
0	5239	8629.381967556166	5
0	5242	8636.348413026716	4
0	5244	8640.260125377749	5
0	5247	8642.331352943627	4
0	5249	8644.353826729705	5
0	5252	8646.003336171842	4
0	5254	8651.535927911732	5
0	5257	8652.419010634115	4
0	5259	8661.676988090879	3
0	5261	8664.187721485212	4
0	5264	8667.798728351741	3
0	5266	8669.000706132219	2
0	5268	8672.497810633463	1
0	5270	8673.517774653186	2
0	5273	8681.292914005733	3
0	5276	8687.503257486951	4
0	5279	8692.329228929317	3
0	5281	8695.017732423258	2
0	5283	8700.343304008789	3
0	5286	8705.217464248275	2
0	5288	8714.892687692127	3
0	5291	8722.64688932878	4
0	5294	8725.817171875443	3
0	5296	8730.604776890847	4
0	5299	8730.74509561232	5
0	5302	8733.911851997602	6
0	5305	8743.390941835505	7
0	5308	8753.079025812732	6
0	5310	8753.565325903848	7
0	5313	8753.845896231956	8
0	5315	8757.733118604593	9
0	5317	8765.742621542103	10
0	5319	8772.25069263126	11
0	5321	8774.053173035744	12
0	5323	8775.554978991346	11
0	5326	8777.238773202658	12
0	5328	8778.137215255717	11
0	5331	8779.610132062949	10
0	5334	8781.384987823787	9
0	5337	8786.811834274871	10
0	5339	8794.675438676323	11
0	5341	8796.06670993177	10
0	5344	8798.326710817379	11
0	5346	8799.148380330754	12
0	5348	8804.965345106751	11
0	5351	8807.956395669879	10
0	5354	8808.138151495351	11
0	5356	8808.380686192139	10
0	5359	8811.647128587026	9
0	5362	8817.37024695358	8
0	5365	8824.652871161469	9
0	5367	8825.774945939734	8
0	5370	8827.002998302526	7
0	5373	8829.017385642385	8
0	5375	8832.317400527733	7
0	5378	8834.436581428974	6
0	5380	8837.665873697131	5
0	5382	8848.873683249346	6
0	5385	8850.072733502094	5
0	5387	8852.387815179486	4
0	5389	8855.800038888309	3
0	5391	8856.406547992373	2
0	5393	8859.780755137421	3
0	5396	8860.94110300755	4
0	5399	8862.329603471042	5
0	5402	8866.568859758399	4
0	5404	8867.821410253982	5
0	5407	8871.369597836267	6
0	5410	8877.146131079301	5
0	5412	8878.518807231257	4
0	5414	8886.13398333413	5
0	5417	8901.284231783632	6
0	5420	8901.749678226646	5
0	5422	8905.332229289592	4
0	5424	8911.097407469059	3
0	5426	8922.826567957473	4
0	5429	8924.143225211723	5
0	5432	8927.701067544388	4
0	5434	8927.751208821999	5
0	5437	8931.769383776353	6
0	5440	8941.973352026471	5
0	5442	8944.904112611134	6
0	5445	8949.144307110591	7
0	5448	8949.241810554889	6
0	5450	8949.613293029077	7
0	5453	8950.173849337447	6
0	5455	8951.494256428501	7
0	5458	8953.47552207182	8
0	5460	8956.471096344003	7
0	5463	8959.039936728302	8
0	5465	8961.750388366601	7
0	5468	8964.914473956293	6
0	5470	8966.532402190645	5
0	5472	8968.056176747551	6
0	5475	8968.413480659886	5
0	5477	8979.191717710894	4
0	5479	8979.898890589478	5
0	5482	8980.085567794225	6
0	5485	8988.440139766794	7
0	5488	8989.237143842448	8
0	5490	8989.920438579966	7
0	5493	8995.312951535707	8
0	5495	8997.681236750636	7
0	5498	8997.968066659633	6
0	5500	9008.424770412733	7
0	5503	9013.061621955843	6
0	5505	9013.888785087309	7
0	5508	9014.471091704289	6
0	5510	9015.97814910702	5
0	5512	9018.200297516473	4
0	5514	9024.768922718602	3
0	5516	9037.732336748666	2
0	5518	9041.9610310792	3
0	5521	9043.03364112861	4
0	5524	9044.203773456444	5
0	5527	9049.702036732917	6
0	5530	9051.361873708134	7
0	5533	9054.607066745188	6
0	5535	9057.695128067222	7
0	5538	9060.695444598822	8
0	5540	9061.861404211162	7
0	5543	9069.915485756653	8
0	5545	9070.855957757094	9
0	5547	9071.354818002699	8
0	5550	9075.864050916818	9
0	5552	9078.277614159183	8
0	5555	9085.35477182377	9
0	5557	9085.626031230823	10
0	5559	9088.13793378756	9
0	5562	9088.94102598289	10
0	5564	9092.777657531632	9
0	5567	9093.67724276729	8
0	5570	9102.727695572953	7
0	5573	9105.282544284394	8
0	5575	9111.368848902749	7
0	5578	9114.933942563963	8
0	5580	9115.421219670294	7
0	5583	9118.454435898238	6
0	5585	9119.615415658838	5
0	5587	9120.19821707279	4
0	5589	9123.617136999388	3
0	5591	9127.282503110295	2
0	5593	9130.10400249878	3
0	5596	9142.792570208406	4
0	5599	9146.506258224092	3
0	5601	9150.408576981705	4
0	5604	9154.542616001403	5
0	5607	9157.054229882215	4
0	5609	9161.85184015035	5
0	5612	9166.806060498295	6
0	5615	9166.958902350683	5
0	5617	9167.864866857726	6
0	5620	9170.420641686774	7
0	5623	9175.892038876295	8
0	5625	9179.142661965142	7
0	5628	9183.094293597664	6
0	5630	9183.688998696198	5
0	5632	9192.402857043377	4
0	5634	9194.740680426519	3
0	5636	9216.326248919726	2
0	5638	9218.96126485887	3
0	5641	9231.113548915658	2
0	5643	9233.007873203756	3
0	5646	9235.003672808111	4
0	5649	9237.363073274431	5
0	5652	9248.190329608895	6
0	5655	9249.867805033317	7
0	5658	9249.987352772551	8
0	5660	9250.201026350796	9
0	5662	9255.806815732038	10
0	5664	9260.278089800086	9
0	5667	9271.505731390193	8
0	5670	9282.524673301011	7
0	5673	9285.739858549427	6
0	5675	9286.121649778354	7
0	5678	9287.441036068523	6
0	5680	9288.594308830334	5
0	5682	9291.669130958384	4
0	5684	9292.791391439293	5
0	5687	9299.651245874635	6
0	5690	9304.899223572109	5
0	5692	9305.245708179681	4
0	5694	9310.403911267603	3
0	5696	9312.756913923488	4
0	5699	9312.981409084666	5
0	5702	9318.451008920912	4
0	5704	9320.921141157311	3
0	5706	9323.32275237542	2
0	5708	9323.493480676919	3
0	5711	9324.293408467038	4
0	5714	9324.440586110302	3
0	5716	9324.675459280675	2
0	5718	9326.23496277062	3
0	5721	9342.863920506134	2
0	5723	9345.133777303158	3
0	5726	9356.005708664283	2
0	5728	9359.565038470382	1
0	5730	9362.765751054723	2
0	5733	9372.339307247351	1
0	5735	9381.036530912857	2
0	5738	9385.011203026183	3
0	5741	9385.269029175089	2
0	5743	9395.930458357759	3
0	5746	9397.678367882855	4
0	5749	9402.801440704257	3
0	5751	9404.192577401871	4
0	5754	9410.493957013265	5
0	5757	9413.075907592841	4
0	5759	9413.753920837299	5
0	5762	9416.024556779071	6
0	5765	9416.381274793773	7
0	5768	9417.243041576388	8
0	5770	9419.890110983071	7
0	5773	9422.616002972906	8
0	5775	9426.574060339802	7
0	5778	9438.242432145142	8
0	5780	9439.995062486578	7
0	5783	9441.571180678551	8
0	5785	9443.613338098962	9
0	5787	9444.440679958171	8
0	5790	9447.999961042315	9
0	5792	9451.817248169804	8
0	5795	9452.190206179948	9
0	5797	9455.286514777708	10
0	5799	9457.57626567922	9
0	5802	9458.046591789295	8
0	5805	9458.729834441182	7
0	5808	9459.561629037805	8
0	5810	9459.970861701173	9
0	5812	9465.682513934531	10
0	5814	9472.215872188174	11
0	5816	9473.886771437874	12
0	5818	9475.086367517622	13
0	5820	9476.716755442019	14
0	5822	9481.747735862775	13
0	5825	9486.21671434571	12
0	5828	9489.133910737745	11
0	5831	9492.455199463799	10
0	5834	9493.095754038944	9
0	5837	9498.492784639623	10
0	5839	9500.59183929187	11
0	5841	9501.616505628325	12
0	5843	9505.451110307309	13
0	5845	9506.894111861539	14
0	5847	9514.522279484544	15
0	5849	9518.152173875838	16
0	5851	9521.027960964651	15
0	5854	9521.188670190205	16
0	5856	9522.054911084167	15
0	5859	9524.670484221653	14
0	5862	9526.618243057728	15
0	5864	9526.799469944007	16
0	5866	9532.180616871608	15
0	5869	9535.682080260052	14
0	5872	9535.925963320587	15
0	5874	9537.110623074302	16
0	5876	9537.6151080869	17
0	5878	9541.134059284829	16
0	5881	9543.644797624993	15
0	5884	9547.734011498965	14
0	5887	9548.856799741702	13
0	5890	9550.468118496556	12
0	5893	9563.058394975746	11
0	5896	9569.100845817424	12
0	5898	9570.238850184362	11
0	5901	9573.739908144503	10
0	5904	9580.03705309154	9
0	5907	9586.656135617987	8
0	5910	9587.266308452079	7
0	5913	9596.240639994567	6
0	5915	9599.854381575828	7
0	5918	9601.813627110465	8
0	5920	9607.560648050402	9
0	5922	9611.023504401751	10
0	5924	9622.803305566802	11
0	5926	9623.312817279487	12
0	5928	9625.278575208173	13
0	5930	9626.701215399054	12
0	5933	9630.836077332716	13
0	5935	9631.259033220167	12
0	5938	9632.710552809314	11
0	5941	9633.734265916095	12
0	5943	9639.883190412289	13
0	5945	9640.655899967684	14
0	5947	9641.421251132705	13
0	5950	9642.494406043703	14
0	5952	9643.014702445568	15
0	5954	9643.92830535413	16
0	5956	9646.453134919437	15
0	5959	9662.223932404389	16
0	5961	9662.354027776983	17
0	5963	9662.519993611602	18
0	5965	9665.402803960311	17
0	5968	9675.796633075546	16
0	5971	9677.652042746741	17
0	5973	9679.395246773	18
0	5975	9679.590326238442	17
0	5978	9683.48951300859	18
0	5980	9691.804647898485	17
0	5983	9692.600156408501	16
0	5986	9692.758404803531	17
0	5988	9696.125709275868	16
0	5991	9697.070555814048	15
0	5994	9698.272007711951	14
0	5997	9703.707530002654	13
0	6000	9703.814630734806	14
0	6002	9707.017037860315	13
0	6005	9707.492028962162	12
0	6008	9711.741662246077	13
0	6010	9718.973205730129	12
0	6013	9721.073752211616	11
0	6016	9726.688387055003	10
0	6019	9727.664158344884	9
0	6022	9728.127827832282	10
0	6024	9730.538904511826	11
0	6026	9736.841974257369	10
0	6029	9739.722381045809	9
0	6032	9741.200277056917	8
0	6035	9742.083264409887	9
0	6037	9747.323717843445	8
0	6040	9750.352273736147	7
0	6043	9751.348301737289	8
0	6045	9751.437610706401	7
0	6048	9761.364832836077	8
0	6050	9762.368219466102	9
0	6052	9766.670352382007	10
0	6054	9768.901220967671	11
0	6056	9778.103351203925	12
0	6058	9787.148369169939	11
0	6061	9789.303322813938	12
0	6063	9792.476564833839	11
0	6066	9797.3257034566	10
0	6069	9801.555794933913	11
0	6071	9806.021441298247	10
0	6074	9807.369936540759	11
0	6076	9809.927131029083	12
0	6078	9813.077277397516	13
0	6080	9813.598916013214	14
0	6082	9822.546100776044	15
0	6084	9827.502174101812	14
0	6087	9827.906550672538	13
0	6090	9832.428155239665	12
0	6093	9833.001687238763	13
0	6095	9840.503409986228	12
0	6098	9844.120901449565	11
0	6101	9845.436951046291	12
0	6103	9845.690548769157	11
0	6106	9849.101545944748	10
0	6109	9851.26660889101	11
0	6111	9853.821517650368	10
0	6114	9860.28449285541	9
0	6117	9867.923195053536	10
0	6119	9872.464673101791	11
0	6121	9875.156383011854	12
0	6123	9878.286798651151	13
0	6125	9879.318029304025	14
0	6127	9883.297426179872	13
0	6130	9893.91787091808	14
0	6132	9898.911834263502	15
0	6134	9900.996089942011	14
0	6137	9913.384708812395	13
0	6140	9919.197337381714	12
0	6143	9919.214970378672	13
0	6145	9919.789529819351	12
0	6148	9922.283493859115	11
0	6151	9925.651178800885	10
0	6154	9934.00313868444	11
0	6156	9942.20807957564	10
0	6159	9956.28522895283	11
0	6161	9956.644415077592	12
0	6163	9958.155996501609	11
0	6166	9959.087452771622	10
0	6169	9961.006567930689	9
0	6172	9961.090379514239	10
0	6174	9963.259498476031	9
0	6177	9964.719425581134	10
0	6179	9969.731306884113	9
0	6182	9969.740181317423	10
0	6184	9970.692068586909	9
0	6187	9972.662242398175	8
0	6190	9975.305048788042	9
0	6192	9979.055989323694	8
0	6195	9984.865197094326	7
0	6198	9989.172531325414	6
0	6200	9995.647678296623	7
0	6203	10000.758316185699	8
0	6205	10001.243425685772	7
0	6208	10004.546239525087	6
0	6210	10008.514890551773	5
0	6212	10009.079650780436	4
0	6214	10009.226106507101	5
0	6217	10011.343855105372	4
0	6219	10016.931466628124	5
0	6222	10017.628449761485	4
0	6224	10022.900640371966	5
0	6227	10025.985151001519	4
0	6229	10029.361206332468	5
0	6232	10030.234694528906	4
0	6234	10031.418532903736	3
0	6236	10033.931554471133	4
0	6239	10034.450400863589	5
0	6242	10035.56639299783	6
0	6245	10036.210474505594	7
0	6248	10036.845118072149	8
0	6250	10036.962518119327	7
0	6253	10039.444680440141	6
0	6255	10040.300711740851	5
0	6257	10041.882790549168	6
0	6260	10043.972347747839	7
0	6263	10044.845153943556	6
0	6265	10048.360182679732	5
0	6267	10050.993980539615	6
0	6270	10051.595281800774	5
0	6272	10052.458155705145	4
0	6274	10053.782104426076	3
0	6276	10057.23403401231	4
0	6279	10057.485599370352	5
0	6282	10059.329635913674	4
0	6284	10061.759317652975	5
0	6287	10067.992216093716	6
0	6290	10069.269318040841	7
0	6293	10069.604303770977	6
0	6295	10070.544840021668	7
0	6298	10077.13738514416	8
0	6300	10079.745720787258	7
0	6303	10080.651870882972	6
0	6305	10082.157007286736	5
0	6307	10084.902596347503	4
0	6309	10084.903434169137	5
0	6312	10086.13092754265	6
0	6315	10103.483974188768	7
0	6318	10107.764382266534	6
0	6320	10108.006641633031	7
0	6323	10117.192740034834	8
0	6325	10117.534915408684	9
0	6327	10122.325448966508	8
0	6330	10128.066695824774	9
0	6332	10129.947220555054	10
0	6334	10130.838094513679	9
0	6337	10136.768601594799	8
0	6340	10137.655659527021	7
0	6343	10138.868768625458	6
0	6345	10139.45093920541	5
0	6347	10141.477864309481	4
0	6349	10143.440843878211	3
0	6351	10145.199161192622	4
0	6354	10151.049383956185	5
0	6357	10155.745624931925	6
0	6360	10158.039971579056	5
0	6362	10164.492034619034	4
0	6364	10167.286095965711	5
0	6367	10168.85481394202	4
0	6369	10175.593405972256	3
0	6371	10181.390790456636	2
0	6373	10183.321293977111	3
0	6376	10184.755728663235	4
0	6379	10189.258739381993	3
0	6381	10190.049310426006	2
0	6383	10190.054115206382	3
0	6386	10193.179441937681	4
0	6389	10193.323984514033	5
0	6392	10196.354302871087	6
0	6395	10205.097172218148	5
0	6397	10205.224118036372	4
0	6399	10209.82136815209	3
0	6401	10215.36764414989	4
0	6404	10215.692150102609	3
0	6406	10219.005580249198	4
0	6409	10221.480393976583	5
0	6412	10222.838064821636	6
0	6415	10223.414682508316	5
0	6417	10235.583421076318	4
0	6419	10236.742560438377	5
0	6422	10236.968090093743	4
0	6424	10246.604106443159	5
0	6427	10246.765556905687	6
0	6430	10249.564383966952	5
0	6432	10249.794150844584	6
0	6435	10250.305593359155	7
0	6438	10252.927675339515	6
0	6440	10253.117558522665	5
0	6442	10266.487416473459	4
0	6444	10279.407942775001	3
0	6446	10283.224934820474	2
0	6448	10290.755600178471	1
0	6450	10296.936074641783	2
0	6453	10297.143097132319	3
0	6456	10301.362035416513	4
0	6459	10306.563395044594	5
0	6462	10315.862785509092	6
0	6465	10326.055436297656	5
0	6467	10331.900538027903	6
0	6470	10333.909796749013	7
0	6473	10334.770032216459	8
0	6475	10335.878297110924	7
0	6478	10339.593328039785	8
0	6480	10340.455378429761	9
0	6482	10341.826730314825	8
0	6485	10352.180197103155	7
0	6488	10353.388438255987	6
0	6490	10360.715642242414	7
0	6493	10364.983335635509	8
0	6495	10365.507951731427	9
0	6497	10368.125991929291	8
0	6500	10369.735812510685	9
0	6502	10372.302878503927	10
0	6504	10381.701052131268	9
0	6507	10387.207832737341	10
0	6509	10387.583064540921	11
0	6511	10393.481644325091	10
0	6514	10395.365605877001	9
0	6517	10398.680097519392	10
0	6519	10401.070158296056	9
0	6522	10414.266872687842	8
0	6525	10416.210349883721	9
0	6527	10417.607004122697	8
0	6530	10420.551291603426	9
0	6532	10430.990165833108	10
0	6534	10431.449305451418	9
0	6537	10436.826950073649	10
0	6539	10437.896645076309	9
0	6542	10442.042590289108	8
0	6545	10446.18473610338	7
0	6548	10446.607420438705	6
0	6550	10448.028673914805	5
0	6552	10449.219006040667	4
0	6554	10450.270125827143	5
0	6557	10453.052583958901	4
0	6559	10457.300623108112	3
0	6561	10469.204002150918	2
0	6563	10475.19264914247	3
0	6566	10477.165541113167	2
0	6568	10488.432325495172	3
0	6571	10489.449222908313	4
0	6574	10490.666027558415	3
0	6576	10503.984169580643	4
0	6579	10510.460083563747	5
0	6582	10514.809463248091	4
0	6584	10515.777563242387	3
0	6586	10523.270649611627	4
0	6589	10525.081394406348	3
0	6591	10529.078731579518	4
0	6594	10533.846122517812	3
0	6596	10541.426711309937	4
0	6599	10541.481824620243	5
0	6602	10541.582253219628	4
0	6604	10542.757340305268	3
0	6606	10546.557375517531	2
0	6608	10562.895896229445	1
0	6610	10566.195287779922	0
0	6612	10585.049010651201	1
0	6615	10591.458310560642	2
0	6618	10591.74100708361	3
0	6621	10594.977949774691	2
0	6623	10595.079272186015	3
0	6626	10597.622677988462	4
0	6629	10601.044876066045	3
0	6631	10601.216683371992	2
0	6633	10609.411631344311	3
0	6636	10612.953586486492	2
0	6638	10615.227622775878	3
0	6641	10624.892644150222	4
0	6644	10629.252246210789	5
0	6647	10629.408644011396	4
0	6649	10632.523865122061	5
0	6652	10640.52723010315	6
0	6655	10643.46811599957	5
0	6657	10644.439639336804	4
0	6659	10646.508560974608	3
0	6661	10650.77555679957	4
0	6664	10666.19513579844	3
0	6666	10674.721236375805	4
0	6669	10676.741932686809	5
0	6672	10682.080920443958	6
0	6675	10682.37027240994	5
0	6677	10683.587236871228	4
0	6679	10684.718202431096	5
0	6682	10688.003483891384	6
0	6685	10688.79056950335	7
0	6688	10691.76910777009	6
0	6690	10694.22187078477	7
0	6693	10703.563674083883	6
0	6695	10703.966826586418	7
0	6698	10707.938246786305	8
0	6700	10708.133432516831	7
0	6703	10708.974014191579	6
0	6705	10709.483634410095	7
0	6708	10714.637551904816	6
0	6710	10719.380691928668	7
0	6713	10720.433570210027	8
0	6715	10721.567843367612	9
0	6717	10744.391963626097	8
0	6720	10746.828525064618	7
0	6723	10748.858137298259	6
0	6725	10755.491093042975	5
0	6727	10766.521801871129	6
0	6730	10768.710147166723	5
0	6732	10771.48777225085	6
0	6735	10771.543575467735	7
0	6738	10773.821231725329	6
0	6740	10775.53927953808	7
0	6743	10776.69885058554	6
0	6745	10780.020195730051	7
0	6748	10782.894225447594	8
0	6750	10784.132402544476	9
0	6752	10785.631672815338	8
0	6755	10792.878814061661	7
0	6758	10793.458665826239	6
0	6760	10803.456852607967	7
0	6763	10804.133532944303	6
0	6765	10805.57863350357	7
0	6768	10808.987631614324	8
0	6770	10809.406348414061	7
0	6773	10814.72068948002	6
0	6775	10815.798485500597	5
0	6777	10818.079121678057	6
0	6780	10819.779479550629	5
0	6782	10837.798055742407	4
0	6784	10844.118598087964	3
0	6786	10846.521318920978	2
0	6788	10848.009069332214	1
0	6790	10851.236001770681	2
0	6793	10853.933311255734	1
0	6795	10861.905501805227	2
0	6798	10866.818555820773	1
0	6800	10866.882866006676	2
0	6803	10867.009120446338	3
0	6806	10868.346283873725	4
0	6809	10871.168400507875	5
0	6812	10879.41243655977	4
0	6814	10880.60783422793	5
0	6817	10883.379634023712	6
0	6820	10883.749771353716	7
0	6823	10885.110387854708	6
0	6825	10886.403505306568	5
0	6827	10893.036670766023	6
0	6830	10894.962901932997	5
0	6832	10898.730726396711	4
0	6834	10913.652626327082	5
0	6837	10924.271094585611	4
0	6839	10926.155092144108	3
0	6841	10927.338012182277	2
0	6843	10927.627311388336	3
0	6846	10932.562601157964	4
0	6849	10934.485636696806	3
0	6851	10944.889743437797	2
0	6853	10946.315391541569	1
0	6855	10977.246598376425	2
0	6858	10981.435088233359	3
0	6861	10983.965946000796	4
0	6864	10992.054694502222	3
0	6866	10992.665286982605	4
0	6869	10999.314361740774	5
0	6872	11000.791699862521	6
0	6875	11007.794673476831	7
0	6878	11012.611277547757	8
0	6880	11019.412417356874	9
0	6882	11022.39807101299	8
0	6885	11033.342172891709	7
0	6888	11033.808825422266	6
0	6890	11036.003300030542	5
0	6892	11038.557346658841	4
0	6894	11041.087083618215	3
0	6896	11042.039522642081	4
0	6899	11046.379703808006	3
0	6901	11049.250372601026	4
0	6904	11052.182018493675	5
0	6907	11059.654094379536	4
0	6909	11063.563285845246	5
0	6912	11068.562093189338	4
0	6914	11069.005890262691	5
0	6917	11071.17428447906	4
0	6919	11073.163115524699	5
0	6922	11073.54863652756	4
0	6924	11080.76927816171	3
0	6926	11081.77612395315	2
0	6928	11084.047656085527	3
0	6931	11087.853747055576	2
0	6933	11096.835094764126	1
0	6935	11106.971044997903	2
0	6938	11109.230529415489	3
0	6941	11112.465480585379	2
0	6943	11119.495968666645	1
0	6945	11120.695924032298	2
0	6948	11122.768117425051	1
0	6950	11124.815557049671	0
0	6952	11127.941966559069	1
0	6955	11130.51326945988	2
0	6958	11138.32171401692	1
0	6960	11145.67458088077	2
0	6963	11154.465143405165	1
0	6965	11164.346694153834	2
0	6968	11185.685002854134	3
0	6971	11197.078284182553	2
0	6973	11205.762362244957	3
0	6976	11206.398734523424	4
0	6979	11208.181378707674	3
0	6981	11210.131571183681	4
0	6984	11212.330427112673	3
0	6986	11217.913110630157	4
0	6989	11229.571967665173	3
0	6991	11232.329183437629	4
0	6994	11238.403990286318	5
0	6997	11238.965187866033	4
0	6999	11261.555936971587	5
0	7002	11262.055519383451	4
0	7004	11262.083771764063	5
0	7007	11262.67447379072	4
0	7009	11262.925754015096	5
0	7012	11264.361300516156	6
0	7015	11268.397503962959	7
0	7018	11273.023346150334	6
0	7020	11286.907611377247	7
0	7023	11289.046576291514	8
0	7025	11289.648248284767	9
0	7027	11290.831424019277	10
0	7029	11291.817414688672	11
0	7031	11292.669344522334	10
0	7034	11293.546590470148	9
0	7037	11294.129694574906	8
0	7040	11294.498701858793	9
0	7042	11295.402641112414	10
0	7044	11297.690661169798	9
0	7047	11298.521975427309	8
0	7050	11299.886030585534	9
0	7052	11299.904242686916	8
0	7055	11300.849490569969	7
0	7058	11310.737279458286	6
0	7060	11312.761361940388	5
0	7062	11314.018652884674	4
0	7064	11317.448549664042	3
0	7066	11317.490074044873	4
0	7069	11319.160800011475	3
0	7071	11321.741579519614	4
0	7074	11324.720048220777	3
0	7076	11340.127756420959	4
0	7079	11341.481557823204	3
0	7081	11350.104053790408	4
0	7084	11353.672677366089	3
0	7086	11354.888827720972	4
0	7089	11360.412340882588	5
0	7092	11364.658409089744	6
0	7095	11370.538571776938	7
0	7098	11371.507752203073	8
0	7100	11373.500845970372	9
0	7102	11380.054074317968	8
0	7105	11389.735278008685	9
0	7107	11394.940990842263	8
0	7110	11401.809519470514	9
0	7112	11402.038818641464	10
0	7114	11403.047663449033	11
0	7116	11403.108812482965	10
0	7119	11404.998409101958	9
0	7122	11405.970915774826	8
0	7125	11408.29377437283	9
0	7127	11413.790928069837	8
0	7130	11424.787797980665	9
0	7132	11424.952709248054	8
0	7135	11431.013522107343	7
0	7138	11439.270424980815	6
0	7140	11441.983269889853	5
0	7142	11448.706674641968	6
0	7145	11454.364810837662	7
0	7148	11461.352878621448	8
0	7150	11461.878365735688	9
0	7152	11466.229042246931	8
0	7155	11468.450955420542	7
0	7158	11469.169709172184	6
0	7160	11475.74963026173	5
0	7162	11480.258359412463	4
0	7164	11499.57022608418	5
0	7167	11505.130751816635	6
0	7170	11505.366222759903	5
0	7172	11505.586541210468	6
0	7175	11506.463008651174	5
0	7177	11514.690077484791	6
0	7180	11529.974186655144	5
0	7182	11546.905070487678	6
0	7185	11573.247043218016	7
0	7188	11579.819941866261	6
0	7190	11581.222444812377	5
0	7192	11585.749684269246	6
0	7195	11587.206900781173	5
0	7197	11595.905314438575	6
0	7200	11599.278038378117	5
0	7202	11606.122088414175	6
0	7205	11614.120060717692	5
0	7207	11620.279974726536	6
0	7210	11623.235251672706	5
0	7212	11633.942572269252	4
0	7214	11638.973695616292	5
0	7217	11638.98757765183	4
0	7219	11640.362412960304	5
0	7222	11646.908923834064	4
0	7224	11658.533558742173	5
0	7227	11658.742627424875	6
0	7230	11661.046608400666	5
0	7232	11665.148974901759	6
0	7235	11670.440307134301	7
0	7238	11673.75432937825	6
0	7240	11674.085873141775	5
0	7242	11679.132293425788	6
0	7245	11688.301014477029	5
0	7247	11702.507371055644	4
0	7249	11705.439424000277	5
0	7252	11708.746055094779	6
0	7255	11709.646355510421	7
0	7258	11712.530100496492	8
0	7260	11714.545885971986	9
0	7262	11715.994502519731	8
0	7265	11719.036419356815	9
0	7267	11719.084199231111	10
0	7269	11724.790889277497	9
0	7272	11725.206483960262	10
0	7274	11726.309035830998	11
0	7276	11732.279718010629	10
0	7279	11735.213010066842	11
0	7281	11735.222321118688	12
0	7283	11739.125238427962	11
0	7286	11739.650105946707	12
0	7288	11744.289759906995	11
0	7291	11746.915090943859	10
0	7294	11805.875854345949	9
0	7297	11809.94048163418	8
0	7300	11812.778870752866	9
0	7302	11818.745692080591	8
0	7305	11823.520211121398	9
0	7307	11832.284049787342	8
0	7310	11834.429034773141	7
0	7313	11834.568634626176	6
0	7315	11834.864345533514	5
0	7317	11835.700852178052	4
0	7319	11838.220060415611	3
0	7321	11838.516747479062	4
0	7324	11846.176600121981	5
0	7327	11852.505713802556	6
0	7330	11854.996141990816	5
0	7332	11862.142116886573	6
0	7335	11865.751541658315	5
0	7337	11866.171145597627	6
0	7340	11867.012967583446	5
0	7342	11867.751613678508	6
0	7345	11872.520853496603	5
0	7347	11873.606576598928	4
0	7349	11877.464325915522	3
0	7351	11878.481974238971	4
0	7354	11884.879002660331	5
0	7357	11888.78889184571	6
0	7360	11890.251116959889	7
0	7363	11890.413100417073	8
0	7365	11894.798637929987	7
0	7368	11898.268506037059	6
0	7370	11900.626192022126	7
0	7373	11905.020984401433	8
0	7375	11908.31871138625	7
0	7378	11908.408299728171	8
0	7380	11912.846217636548	7
0	7383	11917.007793160425	8
0	7385	11925.411721664883	7
0	7388	11931.436350925738	8
0	7390	11932.370378046564	7
0	7393	11932.806070695653	6
0	7395	11935.265873537603	7
0	7398	11935.277686897078	6
0	7400	11937.794631540864	5
0	7402	11940.195157750302	6
0	7405	11945.281717362981	5
0	7407	11945.796588074351	6
0	7410	11946.518477325955	5
0	7412	11956.177140524606	6
0	7415	11957.362115084852	7
0	7418	11965.777028994957	8
0	7420	11973.758303804583	9
0	7422	11973.874318952572	8
0	7425	11974.571091141489	7
0	7428	11976.840657977216	6
0	7430	11976.848354295013	5
0	7432	11976.958096599057	4
0	7434	11979.280228178221	5
0	7437	11979.707916311536	4
0	7439	11994.110915774058	3
0	7441	11998.043662142674	4
0	7444	11999.949764265312	5
0	7447	12005.333411291805	6
0	7450	12008.407196250888	5
0	7452	12009.809465663503	4
0	7454	12014.218959575372	5
0	7457	12018.785558310191	6
0	7460	12025.302721986352	5
0	7462	12041.944918634964	6
0	7465	12042.639405158443	5
0	7467	12046.897752848374	6
0	7470	12050.789861858011	5
0	7472	12051.484769755482	4
0	7474	12055.527460570216	3
0	7476	12057.188152130944	2
0	7478	12058.729173010747	3
0	7481	12059.84441125791	4
0	7484	12067.822106510527	3
0	7486	12069.605220423976	4
0	7489	12077.101159987564	3
0	7491	12079.844828449718	4
0	7494	12087.510134367324	5
0	7497	12089.014113641102	4
0	7499	12092.16842641975	3
0	7501	12092.989798908077	2
0	7503	12095.001138583736	1
0	7505	12097.374890742097	0
0	7507	12098.684995885515	1
0	7510	12107.912431415921	0
0	7512	12119.008346900175	1
0	7515	12126.064768010671	2
0	7518	12128.418498260013	1
0	7520	12129.15133107212	2
0	7523	12132.066784956441	3
0	7526	12136.827072607516	4
0	7529	12139.818070700731	3
0	7531	12140.306885149285	4
0	7534	12144.122954775877	5
0	7537	12145.289078241961	4
0	7539	12145.838094972773	3
0	7541	12171.269936861033	4
0	7544	12178.811875076782	3
0	7546	12206.496417507268	2
0	7548	12220.601878790443	3
0	7551	12240.901448755347	4
0	7554	12254.944716050719	3
0	7556	12255.421639875495	4
0	7559	12256.864284974465	3
0	7561	12260.300409648079	2
0	7563	12273.796491197326	3
0	7566	12281.91156329775	4
0	7569	12282.341740936386	5
0	7572	12284.313411573508	6
0	7575	12287.604560757465	7
0	7578	12298.591541589467	6
0	7580	12310.325427560229	7
0	7583	12312.54222210072	6
0	7585	12314.580636035273	5
0	7587	12314.64832296379	6
0	7590	12314.787479807702	5
0	7592	12319.389942889978	6
0	7595	12320.606917495366	5
0	7597	12330.306805909598	6
0	7600	12332.644528979032	7
0	7603	12332.951349133787	6
0	7605	12335.553147811195	7
0	7608	12339.559579238403	8
0	7610	12340.537255497504	7
0	7613	12342.442152215131	8
0	7615	12343.09357741983	9
0	7617	12344.982039189042	8
0	7620	12347.049169569258	9
0	7622	12351.433085948035	8
0	7625	12356.8500459464	9
0	7627	12357.724557719905	8
0	7630	12372.799230549754	9
0	7632	12373.673634461032	10
0	7634	12385.339477189859	11
0	7636	12392.622484344861	10
0	7639	12394.614053825352	9
0	7642	12397.321772452414	8
0	7645	12400.854136045384	9
0	7647	12403.405388310472	10
0	7649	12407.607076037336	11
0	7651	12413.450440277575	10
0	7654	12415.085177173105	9
0	7657	12416.155857567926	8
0	7660	12416.344416831738	7
0	7663	12419.733544588984	6
0	7665	12422.882846325796	5
0	7667	12426.053220834235	4
0	7669	12426.992010150767	3
0	7671	12444.391581343408	2
0	7673	12448.703979572016	3
0	7676	12451.021856837614	2
0	7678	12456.190735706288	3
0	7681	12456.641776445757	4
0	7684	12459.303197725647	3
0	7686	12459.768306534634	4
0	7689	12474.808878767739	3
0	7691	12483.271673557215	2
0	7693	12488.520056084013	3
0	7696	12493.082199559309	4
0	7699	12496.480272961345	3
0	7701	12498.695850818837	4
0	7704	12501.161389506943	5
0	7707	12503.622018994731	4
0	7709	12503.913443438772	3
0	7711	12504.557581052009	4
0	7714	12515.151873839372	5
0	7717	12517.517853164797	4
0	7719	12526.488800522849	5
0	7722	12528.740315330174	4
0	7724	12529.023636865135	5
0	7727	12530.172638480634	6
0	7730	12531.363847196422	5
0	7732	12547.475214204146	4
0	7734	12552.410538284522	5
0	7737	12555.277488767974	6
0	7740	12557.810429396368	5
0	7742	12557.945248140874	4
0	7744	12567.373616839745	3
0	7746	12572.617148951664	4
0	7749	12573.969347478078	5
0	7752	12578.384311732333	6
0	7755	12585.51413475857	7
0	7758	12589.071890271618	6
0	7760	12592.118199831488	7
0	7763	12596.948042420593	8
0	7765	12602.342761515217	7
0	7768	12607.370403874312	6
0	7770	12607.778743643568	7
0	7773	12615.285071938189	6
0	7775	12621.458222394647	7
0	7778	12621.586433660574	8
0	7780	12629.689948777687	7
0	7783	12630.497676112045	6
0	7785	12632.257863070174	7
0	7788	12633.624517797895	8
0	7790	12637.173741874334	7
0	7793	12640.674645776234	8
0	7795	12645.703334979541	7
0	7798	12645.834473383072	6
0	7800	12661.095254204108	7
0	7803	12669.111918710661	6
0	7805	12672.28139824849	5
0	7807	12676.924290016104	4
0	7809	12681.390423874276	5
0	7812	12685.681747015842	6
0	7815	12692.948512667088	5
0	7817	12693.321396108775	6
0	7820	12699.151909121753	7
0	7823	12700.378614300003	6
0	7825	12710.53467921015	7
0	7828	12717.695876245122	6
0	7830	12717.905232433382	5
0	7832	12718.288449127552	6
0	7835	12724.175772748362	7
0	7838	12725.385730072022	6
0	7840	12728.486412079829	7
0	7843	12732.958821556851	6
0	7845	12735.030369759689	7
0	7848	12736.918200292871	6
0	7850	12737.774179228323	5
0	7852	12744.164705703711	6
0	7855	12748.306030435635	7
0	7858	12749.153143368361	8
0	7860	12753.605708540507	7
0	7863	12756.502104842126	6
0	7865	12756.72747362421	5
0	7867	12757.042139575378	6
0	7870	12758.538641026851	5
0	7872	12761.288421319333	4
0	7874	12762.52808122278	5
0	7877	12763.010885354257	4
0	7879	12764.509578219904	5
0	7882	12766.06896147206	4
0	7884	12776.530379449666	3
0	7886	12776.751285306421	4
0	7889	12776.825990219873	3
0	7891	12778.001793797045	4
0	7894	12778.194474598166	3
0	7896	12780.592300616611	4
0	7899	12784.821875529339	5
0	7902	12786.908796398768	4
0	7904	12795.956680426613	3
0	7906	12796.458443129064	4
0	7909	12798.585395241079	5
0	7912	12798.961420382917	6
0	7915	12803.886748239967	5
0	7917	12814.289353293187	6
0	7920	12822.656949371726	7
0	7923	12834.629165437161	6
0	7925	12848.611867441449	5
0	7927	12850.764018454336	6
0	7930	12854.587214943745	5
0	7932	12854.675670344133	6
0	7935	12856.201764068221	7
0	7938	12867.338004732648	8
0	7940	12868.44800979622	7
0	7943	12871.008491835617	8
0	7945	12871.203096618246	9
0	7947	12874.028168301092	10
0	7949	12874.596995320446	11
0	7951	12875.067707959108	10
0	7954	12880.845832226932	9
0	7957	12887.356634758832	8
0	7960	12888.610047741489	9
0	7962	12889.78939415572	8
0	7965	12890.903418662563	7
0	7968	12895.312749453243	6
0	7970	12899.49913282024	5
0	7972	12901.705807378337	4
0	7974	12902.498520521829	3
0	7976	12903.954764288849	4
0	7979	12905.935864694796	5
0	7982	12908.06797271596	6
0	7985	12910.790483244662	5
0	7987	12914.123772605073	6
[...]
1	7050	11299.886030585534	2
1	7052	11299.904242686916	1
1	7055	11300.849490569969	0
1	7058	11310.737279458286	0
1	7060	11312.761361940388	0
1	7062	11314.018652884674	0
1	7064	11317.448549664042	0
1	7066	11317.490074044873	0
1	7069	11319.160800011475	0
1	7071	11321.741579519614	0
1	7074	11324.720048220777	0
1	7076	11340.127756420959	0
1	7079	11341.481557823204	0
1	7081	11350.104053790408	0
1	7084	11353.672677366089	0
1	7086	11354.888827720972	0
1	7089	11360.412340882588	0
1	7092	11364.658409089744	0
1	7095	11370.538571776938	0
1	7098	11371.507752203073	1
1	7100	11373.500845970372	2
1	7102	11380.054074317968	1
1	7105	11389.735278008685	2
1	7107	11394.940990842263	1
1	7110	11401.809519470514	2
1	7112	11402.038818641464	3
1	7114	11403.047663449033	4
1	7116	11403.108812482965	3
1	7119	11404.998409101958	2
1	7122	11405.970915774826	1
1	7125	11408.29377437283	2
1	7127	11413.790928069837	1
1	7130	11424.787797980665	2
1	7132	11424.952709248054	1
1	7135	11431.013522107343	0
1	7138	11439.270424980815	0
1	7140	11441.983269889853	0
1	7142	11448.706674641968	0
1	7145	11454.364810837662	0
1	7148	11461.352878621448	1
1	7150	11461.878365735688	2
1	7152	11466.229042246931	1
1	7155	11468.450955420542	0
1	7158	11469.169709172184	0
1	7160	11475.74963026173	0
1	7162	11480.258359412463	0
1	7164	11499.57022608418	0
1	7167	11505.130751816635	0
1	7170	11505.366222759903	0
1	7172	11505.586541210468	0
1	7175	11506.463008651174	0
1	7177	11514.690077484791	0
1	7180	11529.974186655144	0
1	7182	11546.905070487678	0
1	7185	11573.247043218016	0
1	7188	11579.819941866261	0
1	7190	11581.222444812377	0
1	7192	11585.749684269246	0
1	7195	11587.206900781173	0
1	7197	11595.905314438575	0
1	7200	11599.278038378117	0
1	7202	11606.122088414175	0
1	7205	11614.120060717692	0
1	7207	11620.279974726536	0
1	7210	11623.235251672706	0
1	7212	11633.942572269252	0
1	7214	11638.973695616292	0
1	7217	11638.98757765183	0
1	7219	11640.362412960304	0
1	7222	11646.908923834064	0
1	7224	11658.533558742173	0
1	7227	11658.742627424875	0
1	7230	11661.046608400666	0
1	7232	11665.148974901759	0
1	7235	11670.440307134301	0
1	7238	11673.75432937825	0
1	7240	11674.085873141775	0
1	7242	11679.132293425788	0
1	7245	11688.301014477029	0
1	7247	11702.507371055644	0
1	7249	11705.439424000277	0
1	7252	11708.746055094779	0
1	7255	11709.646355510421	0
1	7258	11712.530100496492	1
1	7260	11714.545885971986	2
1	7262	11715.994502519731	1
1	7265	11719.036419356815	2
1	7267	11719.084199231111	3
1	7269	11724.790889277497	2
1	7272	11725.206483960262	3
1	7274	11726.309035830998	4
1	7276	11732.279718010629	3
1	7279	11735.213010066842	4
1	7281	11735.222321118688	5
1	7283	11739.125238427962	4
1	7286	11739.650105946707	5
1	7288	11744.289759906995	4
1	7291	11746.915090943859	3
1	7294	11805.875854345949	2
1	7297	11809.94048163418	1
1	7300	11812.778870752866	2
1	7302	11818.745692080591	1
1	7305	11823.520211121398	2
1	7307	11832.284049787342	1
1	7310	11834.429034773141	0
1	7313	11834.568634626176	0
1	7315	11834.864345533514	0
1	7317	11835.700852178052	0
1	7319	11838.220060415611	0
1	7321	11838.516747479062	0
1	7324	11846.176600121981	0
1	7327	11852.505713802556	0
1	7330	11854.996141990816	0
1	7332	11862.142116886573	0
1	7335	11865.751541658315	0
1	7337	11866.171145597627	0
1	7340	11867.012967583446	0
1	7342	11867.751613678508	0
1	7345	11872.520853496603	0
1	7347	11873.606576598928	0
1	7349	11877.464325915522	0
1	7351	11878.481974238971	0
1	7354	11884.879002660331	0
1	7357	11888.78889184571	0
1	7360	11890.251116959889	0
1	7363	11890.413100417073	1
1	7365	11894.798637929987	0
1	7368	11898.268506037059	0
1	7370	11900.626192022126	0
1	7373	11905.020984401433	1
1	7375	11908.31871138625	0
1	7378	11908.408299728171	1
1	7380	11912.846217636548	0
1	7383	11917.007793160425	1
1	7385	11925.411721664883	0
1	7388	11931.436350925738	1
1	7390	11932.370378046564	0
1	7393	11932.806070695653	0
1	7395	11935.265873537603	0
1	7398	11935.277686897078	0
1	7400	11937.794631540864	0
1	7402	11940.195157750302	0
1	7405	11945.281717362981	0
1	7407	11945.796588074351	0
1	7410	11946.518477325955	0
1	7412	11956.177140524606	0
1	7415	11957.362115084852	0
1	7418	11965.777028994957	1
1	7420	11973.758303804583	2
1	7422	11973.874318952572	1
1	7425	11974.571091141489	0
1	7428	11976.840657977216	0
1	7430	11976.848354295013	0
1	7432	11976.958096599057	0
1	7434	11979.280228178221	0
1	7437	11979.707916311536	0
1	7439	11994.110915774058	0
1	7441	11998.043662142674	0
1	7444	11999.949764265312	0
1	7447	12005.333411291805	0
1	7450	12008.407196250888	0
1	7452	12009.809465663503	0
1	7454	12014.218959575372	0
1	7457	12018.785558310191	0
1	7460	12025.302721986352	0
1	7462	12041.944918634964	0
1	7465	12042.639405158443	0
1	7467	12046.897752848374	0
1	7470	12050.789861858011	0
1	7472	12051.484769755482	0
1	7474	12055.527460570216	0
1	7476	12057.188152130944	0
1	7478	12058.729173010747	0
1	7481	12059.84441125791	0
1	7484	12067.822106510527	0
1	7486	12069.605220423976	0
1	7489	12077.101159987564	0
1	7491	12079.844828449718	0
1	7494	12087.510134367324	0
1	7497	12089.014113641102	0
1	7499	12092.16842641975	0
1	7501	12092.989798908077	0
1	7503	12095.001138583736	0
1	7505	12097.374890742097	0
1	7507	12098.684995885515	0
1	7510	12107.912431415921	0
1	7512	12119.008346900175	0
1	7515	12126.064768010671	0
1	7518	12128.418498260013	0
1	7520	12129.15133107212	0
1	7523	12132.066784956441	0
1	7526	12136.827072607516	0
1	7529	12139.818070700731	0
1	7531	12140.306885149285	0
1	7534	12144.122954775877	0
1	7537	12145.289078241961	0
1	7539	12145.838094972773	0
1	7541	12171.269936861033	0
1	7544	12178.811875076782	0
1	7546	12206.496417507268	0
1	7548	12220.601878790443	0
1	7551	12240.901448755347	0
1	7554	12254.944716050719	0
1	7556	12255.421639875495	0
1	7559	12256.864284974465	0
1	7561	12260.300409648079	0
1	7563	12273.796491197326	0
1	7566	12281.91156329775	0
1	7569	12282.341740936386	0
1	7572	12284.313411573508	0
1	7575	12287.604560757465	0
1	7578	12298.591541589467	0
1	7580	12310.325427560229	0
1	7583	12312.54222210072	0
1	7585	12314.580636035273	0
1	7587	12314.64832296379	0
1	7590	12314.787479807702	0
1	7592	12319.389942889978	0
1	7595	12320.606917495366	0
1	7597	12330.306805909598	0
1	7600	12332.644528979032	0
1	7603	12332.951349133787	0
1	7605	12335.553147811195	0
1	7608	12339.559579238403	1
1	7610	12340.537255497504	0
1	7613	12342.442152215131	1
1	7615	12343.09357741983	2
1	7617	12344.982039189042	1
1	7620	12347.049169569258	2
1	7622	12351.433085948035	1
1	7625	12356.8500459464	2
1	7627	12357.724557719905	1
1	7630	12372.799230549754	2
1	7632	12373.673634461032	3
1	7634	12385.339477189859	4
1	7636	12392.622484344861	3
1	7639	12394.614053825352	2
1	7642	12397.321772452414	1
1	7645	12400.854136045384	2
1	7647	12403.405388310472	3
1	7649	12407.607076037336	4
1	7651	12413.450440277575	3
1	7654	12415.085177173105	2
1	7657	12416.155857567926	1
1	7660	12416.344416831738	0
1	7663	12419.733544588984	0
1	7665	12422.882846325796	0
1	7667	12426.053220834235	0
1	7669	12426.992010150767	0
1	7671	12444.391581343408	0
1	7673	12448.703979572016	0
1	7676	12451.021856837614	0
1	7678	12456.190735706288	0
1	7681	12456.641776445757	0
1	7684	12459.303197725647	0
1	7686	12459.768306534634	0
1	7689	12474.808878767739	0
1	7691	12483.271673557215	0
1	7693	12488.520056084013	0
1	7696	12493.082199559309	0
1	7699	12496.480272961345	0
1	7701	12498.695850818837	0
1	7704	12501.161389506943	0
1	7707	12503.622018994731	0
1	7709	12503.913443438772	0
1	7711	12504.557581052009	0
1	7714	12515.151873839372	0
1	7717	12517.517853164797	0
1	7719	12526.488800522849	0
1	7722	12528.740315330174	0
1	7724	12529.023636865135	0
1	7727	12530.172638480634	0
1	7730	12531.363847196422	0
1	7732	12547.475214204146	0
1	7734	12552.410538284522	0
1	7737	12555.277488767974	0
1	7740	12557.810429396368	0
1	7742	12557.945248140874	0
1	7744	12567.373616839745	0
1	7746	12572.617148951664	0
1	7749	12573.969347478078	0
1	7752	12578.384311732333	0
1	7755	12585.51413475857	0
1	7758	12589.071890271618	0
1	7760	12592.118199831488	0
1	7763	12596.948042420593	1
1	7765	12602.342761515217	0
1	7768	12607.370403874312	0
1	7770	12607.778743643568	0
1	7773	12615.285071938189	0
1	7775	12621.458222394647	0
1	7778	12621.586433660574	1
1	7780	12629.689948777687	0
1	7783	12630.497676112045	0
1	7785	12632.257863070174	0
1	7788	12633.624517797895	1
1	7790	12637.173741874334	0
1	7793	12640.674645776234	1
1	7795	12645.703334979541	0
1	7798	12645.834473383072	0
1	7800	12661.095254204108	0
1	7803	12669.111918710661	0
1	7805	12672.28139824849	0
1	7807	12676.924290016104	0
1	7809	12681.390423874276	0
1	7812	12685.681747015842	0
1	7815	12692.948512667088	0
1	7817	12693.321396108775	0
1	7820	12699.151909121753	0
1	7823	12700.378614300003	0
1	7825	12710.53467921015	0
1	7828	12717.695876245122	0
1	7830	12717.905232433382	0
1	7832	12718.288449127552	0
1	7835	12724.175772748362	0
1	7838	12725.385730072022	0
1	7840	12728.486412079829	0
1	7843	12732.958821556851	0
1	7845	12735.030369759689	0
1	7848	12736.918200292871	0
1	7850	12737.774179228323	0
1	7852	12744.164705703711	0
1	7855	12748.306030435635	0
1	7858	12749.153143368361	1
1	7860	12753.605708540507	0
1	7863	12756.502104842126	0
1	7865	12756.72747362421	0
1	7867	12757.042139575378	0
1	7870	12758.538641026851	0
1	7872	12761.288421319333	0
1	7874	12762.52808122278	0
1	7877	12763.010885354257	0
1	7879	12764.509578219904	0
1	7882	12766.06896147206	0
1	7884	12776.530379449666	0
1	7886	12776.751285306421	0
1	7889	12776.825990219873	0
1	7891	12778.001793797045	0
1	7894	12778.194474598166	0
1	7896	12780.592300616611	0
1	7899	12784.821875529339	0
1	7902	12786.908796398768	0
1	7904	12795.956680426613	0
1	7906	12796.458443129064	0
1	7909	12798.585395241079	0
1	7912	12798.961420382917	0
1	7915	12803.886748239967	0
1	7917	12814.289353293187	0
1	7920	12822.656949371726	0
1	7923	12834.629165437161	0
1	7925	12848.611867441449	0
1	7927	12850.764018454336	0
1	7930	12854.587214943745	0
1	7932	12854.675670344133	0
1	7935	12856.201764068221	0
1	7938	12867.338004732648	1
1	7940	12868.44800979622	0
1	7943	12871.008491835617	1
1	7945	12871.203096618246	2
1	7947	12874.028168301092	3
1	7949	12874.596995320446	4
1	7951	12875.067707959108	3
1	7954	12880.845832226932	2
1	7957	12887.356634758832	1
1	7960	12888.610047741489	2
1	7962	12889.78939415572	1
1	7965	12890.903418662563	0
1	7968	12895.312749453243	0
1	7970	12899.49913282024	0
1	7972	12901.705807378337	0
1	7974	12902.498520521829	0
1	7976	12903.954764288849	0
1	7979	12905.935864694796	0
1	7982	12908.06797271596	0
1	7985	12910.790483244662	0
1	7987	12914.123772605073	0
1	7990	12918.55479436344	0
1	7993	12919.22384039473	1
1	7995	12921.367412058045	0
1	7998	12924.439656943326	0
1	8000	12925.13994601753	0
1	8002	12925.226939327571	0
1	8005	12925.418749151955	0
1	8007	12926.833540595788	0
1	8009	12929.273588870927	0
1	8012	12930.536987873706	0
1	8015	12931.831957596905	0
1	8017	12941.415844641605	0
1	8019	12953.607050820224	0
1	8021	12969.098228128453	0
1	8023	12974.550728350288	0
1	8026	12998.15182111873	0
1	8029	13006.894529432201	0
1	8031	13009.939171019822	0
1	8033	13019.62307350856	0
1	8035	13028.898321170059	0
1	8038	13031.802592086671	0
1	8041	13043.560643765837	0
1	8044	13044.825792731989	0
1	8046	13046.465595743274	0
1	8049	13049.579020863472	0
1	8052	13053.186074968637	0
1	8055	13057.574198176422	0
1	8057	13059.496711721577	0
1	8059	13070.001219453848	0
1	8062	13071.414312927556	0
1	8064	13076.724001145573	0
1	8067	13077.880104284549	0
1	8070	13082.334721292955	0
1	8072	13082.810550187035	0
1	8075	13084.775381601874	0
1	8078	13085.314872280618	0
1	8080	13088.213158298651	0
1	8082	13091.526242307308	0
1	8084	13097.060091942331	0
1	8086	13100.461577440748	0
1	8089	13101.062173613695	0
1	8092	13101.911678774989	0
1	8094	13102.353310840641	0
1	8096	13103.525975099121	0
1	8099	13104.949196378765	0
1	8102	13113.888116084816	0
1	8104	13116.17980182926	0
1	8107	13124.594502033378	0
1	8110	13125.337420003889	0
1	8112	13129.401841997848	0
1	8115	13138.607962024223	0
1	8117	13139.916692447062	0
1	8120	13153.475066833903	0
1	8122	13155.412590758929	0
1	8125	13156.94039095395	0
1	8127	13157.697801990894	0
1	8130	13159.090227237016	0
1	8132	13166.10000200876	0
1	8134	13170.689413398549	0
1	8137	13174.866441037385	0
1	8140	13179.774980328442	0
1	8143	13180.41668928386	1
1	8145	13182.07227602329	0
1	8148	13185.388993765425	1
1	8150	13186.668336951305	0
1	8153	13193.282471933176	1
1	8155	13200.217046694081	0
1	8158	13205.115839109137	0
1	8160	13206.786103701163	0
1	8162	13206.924801495429	0
1	8165	13208.524963501314	0
1	8167	13215.10653502703	0
1	8170	13223.752598686944	0
1	8172	13231.150878860964	0
1	8175	13232.490893009862	0
1	8177	13234.832550531903	0
1	8179	13236.050678807679	0
1	8181	13238.327953476422	0
1	8184	13248.919105105012	0
1	8186	13249.010268291044	0
1	8189	13268.30887463246	0
1	8191	13286.18317550441	0
1	8194	13290.584612698678	0
1	8196	13294.409874294614	0
1	8199	13297.261194630561	0
1	8202	13298.261030797875	0
1	8205	13304.445374894503	0
1	8207	13311.341520982657	0
1	8209	13314.992301682852	0
1	8211	13321.245775310122	0
1	8214	13323.705343271843	0
1	8217	13324.51080911049	0
1	8219	13337.526109341391	0
1	8221	13345.049334876319	0
1	8224	13352.982698137007	0
1	8226	13360.644967068649	0
1	8228	13366.180178676175	0
1	8231	13379.358906669423	0
1	8234	13381.863064184398	0
1	8236	13381.95205898848	0
1	8238	13395.793619614302	0
1	8241	13400.174236662142	0
1	8243	13409.674092155007	0
1	8246	13410.431594679391	0
1	8249	13415.729287677396	0
1	8251	13416.356874645507	0
1	8254	13424.024117151872	0
1	8256	13425.34184177739	0
1	8259	13436.717897401779	0
1	8262	13438.405949668103	0
1	8265	13444.853734360064	0
1	8267	13450.628986294312	0
1	8269	13455.469700844407	0
1	8272	13460.565877599254	0
1	8274	13461.939171800444	0
1	8276	13462.06231722564	0
1	8279	13465.560558549571	0
1	8281	13467.123065691308	0
1	8283	13479.219798522397	0
1	8286	13479.546970646483	0
1	8289	13484.464443876839	0
1	8292	13486.406053378734	0
1	8294	13486.858667957285	0
1	8297	13489.968289287487	0
1	8299	13492.213722327519	0
1	8301	13497.282139842463	0
1	8303	13502.598113051176	0
1	8306	13507.250498542931	0
1	8309	13509.146415811673	0
1	8311	13509.450738988146	0
1	8314	13510.664938008898	0
1	8317	13514.826029227722	0
1	8320	13517.111896562753	0
1	8322	13518.790780186566	0
1	8325	13519.975046948997	0
1	8328	13522.214803043566	0
1	8330	13530.19820505019	0
1	8332	13530.603902215064	0
1	8335	13531.69061078074	0
1	8338	13543.817409592451	0
1	8340	13544.267428018185	0
1	8342	13558.459039082353	0
1	8344	13567.797190077183	0
1	8347	13578.720079130875	0
1	8350	13579.808624175074	0
1	8353	13579.903065879857	0
1	8355	13582.649777816591	0
1	8357	13589.461983827821	0
1	8360	13599.429168681657	0
1	8362	13600.366701470064	0
1	8364	13608.347302539369	0
1	8367	13610.176644411842	0
1	8369	13631.182942841113	0
1	8372	13640.695790591463	0
1	8374	13649.314731726085	0
1	8377	13651.021158922516	0
1	8379	13653.207567797424	0
1	8381	13657.134784944823	0
1	8383	13671.684128084006	0
1	8385	13672.720611559584	0
1	8388	13690.660614451534	0
1	8391	13692.011032402385	0
1	8394	13700.864280254163	0
1	8397	13717.067316137283	0
1	8399	13725.268280031417	0
1	8402	13726.747387243684	0
1	8405	13728.619106716977	0
1	8408	13730.501582871272	0
1	8410	13737.687381875572	0
1	8413	13745.931244701967	0
1	8415	13745.988133411765	0
1	8417	13749.514155147059	0
1	8419	13753.343055544719	0
1	8422	13758.463040308104	0
1	8425	13761.0583985113	0
1	8428	13762.070746119893	0
1	8430	13762.577827023704	0
1	8433	13763.666028917678	1
1	8435	13764.754339729885	0
1	8438	13767.710831786212	1
1	8440	13780.096900719124	2
1	8442	13782.205113083504	1
1	8445	13787.05747733138	2
1	8447	13787.305503369065	1
1	8450	13791.260951730025	0
1	8453	13798.32368121211	0
1	8455	13804.953998431149	0
1	8458	13805.482113937743	0
1	8460	13812.788651553213	0
1	8462	13814.076317159392	0
1	8464	13816.896004408281	0
1	8467	13818.438809986586	0
1	8469	13823.977931894459	0
1	8472	13825.955722325903	0
1	8475	13828.679827656491	0
1	8478	13835.825579744017	0
1	8480	13841.92211460305	0
1	8482	13842.413240625866	0
1	8485	13845.608626646134	0
1	8488	13850.813973824093	1
1	8490	13853.277268589592	2
1	8492	13865.47129972944	1
1	8495	13872.560892655154	0
1	8498	13876.23868594666	0
1	8500	13878.766930246878	0
1	8502	13886.434923998512	0
1	8505	13893.976067304049	0
1	8507	13896.493132155365	0
1	8510	13896.950097096126	0
1	8512	13902.927667712772	0
1	8514	13913.448176389284	0
1	8516	13915.780824197028	0
1	8518	13930.456511615713	0
1	8521	13948.650326629606	0
1	8524	13959.689977633694	0
1	8527	13960.631624801145	0
1	8530	13965.254516620644	0
1	8533	13967.232485743658	0
1	8535	13984.914728112957	0
1	8538	13985.87717098526	1
1	8540	13986.056523477331	2
1	8542	13996.367928496269	1
1	8545	13996.616353203513	2
1	8547	13999.14804191899	3
1	8549	14008.699113176836	2
1	8552	14011.60885955577	1
1	8555	14016.016759666728	2
1	8557	14016.30791832454	3
1	8559	14024.441811765391	4
1	8561	14028.248485786023	5
1	8563	14029.197696370077	4
1	8566	14033.700921793821	3
1	8569	14033.98056353964	4
1	8571	14038.043089888416	3
1	8574	14038.371924610671	2
1	8577	14039.033302777645	3
1	8579	14039.259333917774	2
1	8582	14050.02764004841	1
1	8585	14058.486522688407	0
1	8588	14071.070839500187	1
1	8590	14072.474930702085	0
1	8593	14078.554958129111	0
1	8595	14081.028858633169	0
1	8598	14081.076820337759	1
1	8600	14081.621063873153	2
1	8602	14082.664698817909	3
1	8604	14083.612788105527	2
1	8607	14089.060379622442	3
1	8609	14089.386829605258	2
1	8612	14091.389678770718	1
1	8615	14096.177380990039	0
1	8618	14101.324672029698	0
1	8620	14107.150873245247	0
1	8622	14111.040789760447	0
1	8624	14116.136458746471	0
1	8627	14118.211621372613	0
1	8630	14122.590370540416	0
1	8633	14126.66647924457	1
1	8635	14134.32448940178	0
1	8638	14134.752062139968	0
1	8640	14136.169320776087	0
1	8643	14138.220227535696	1
1	8645	14142.419032694393	0
1	8648	14144.380322399737	0
1	8650	14144.433353450105	0
1	8653	14149.084810195648	0
1	8655	14151.30570281137	0
1	8657	14153.372710846665	0
1	8660	14154.122834608901	0
1	8663	14154.23874467015	0
1	8665	14155.548440432125	0
1	8667	14161.940697091741	0
1	8670	14168.067062702254	0
1	8672	14172.823255107924	0
1	8675	14179.34702806549	0
1	8677	14182.439183477124	0
1	8679	14187.412019598998	0
1	8682	14189.564434962212	0
1	8684	14193.667239960635	0
1	8687	14198.244456492612	0
1	8690	14198.620932269779	0
1	8693	14205.298034881084	0
1	8695	14210.567094960859	0
1	8698	14218.818832723704	1
1	8700	14221.251658390272	2
1	8702	14222.5074500172	1
1	8705	14223.52003035262	0
1	8708	14226.084649537613	0
1	8710	14226.635628506799	0
1	8713	14229.429914902261	0
1	8715	14230.124887520145	0
1	8717	14233.05722785987	0
1	8720	14239.608617685816	0
1	8722	14244.471031842123	0
1	8725	14246.971445851166	0
1	8728	14249.80160625799	0
1	8730	14252.008097486282	0
1	8733	14253.4102456434	1
1	8735	14254.388251021116	0
1	8738	14254.914672255625	0
1	8740	14255.034693710728	0
1	8742	14257.931323979102	0
1	8744	14259.793940751289	0
1	8747	14262.207071828087	0
1	8749	14263.797694281911	0
1	8752	14270.099552001764	0
1	8755	14271.099468060296	0
1	8758	14273.251532033021	1
1	8760	14275.364991914322	2
1	8762	14276.608032811286	1
1	8765	14282.144322297418	0
1	8768	14282.991182427702	1
1	8770	14283.565674270045	0
1	8773	14284.026728109075	0
1	8775	14288.672344561168	0
1	8777	14296.925905904964	0
1	8779	14303.16026656758	0
1	8782	14310.13807114523	0
1	8784	14316.76264767585	0
1	8787	14317.475817778805	0
1	8789	14318.873947474005	0
1	8791	14319.936368629632	0
1	8794	14320.783361451015	0
1	8796	14321.432769157543	0
1	8798	14324.814401021502	0
1	8800	14329.037070113528	0
1	8803	14331.430925262938	0
1	8806	14333.146412538985	0
1	8808	14335.700825642027	0
1	8810	14372.355059897919	0
1	8812	14377.356453286691	0
1	8815	14379.674622487699	0
1	8818	14379.768815575422	0
1	8820	14382.640588111057	0
1	8823	14383.141584218763	0
1	8826	14387.906434112001	0
1	8828	14388.54004176356	0
1	8830	14391.317630374879	0
1	8833	14395.524703609291	0
1	8836	14398.880842350423	0

