version 2
run General-12-20191211-23:49:40-6375
attr configname General
attr datetime 20191211-23:49:40
attr experiment General
attr inifile omnetpp.ini
attr iterationvars ""
attr iterationvarsf ""
attr measurement ""
attr network Carrefour
attr processid 6375
attr repetition 12
attr replication #12
attr resultdir results
attr runnumber 12
attr seedset 12
param **.tillsNumber 7
param **.delta 0s
param **.policy 1
param **.capacity 0.3
param **.meanInterArrivalTime 8s
param **.meanItemsInACart 12
param **.interArrivalDistribution 0
param **.itemsInCartDistribution 0

vector 0 Carrefour.decider stats_numCustomers:vector ETV
attr "" ""
attr source numCustomers
vector 1 Carrefour.decider stats_numCustomersQueue:vector ETV
attr "" ""
attr source numCustomersQueue
0	581	1200.328468405693	4
0	584	1201.227588971437	3
0	586	1205.455709293056	4
0	589	1206.780357877697	3
0	591	1208.911362272078	4
0	594	1208.945445673909	3
0	596	1215.221351349734	4
0	599	1221.49467969957	5
0	602	1226.01230835367	6
0	605	1226.916439927517	5
0	607	1229.327288436405	4
0	609	1235.424480199594	3
0	611	1242.947069384775	4
0	614	1243.483370502582	3
0	616	1244.528198685559	2
0	618	1247.923875982991	3
0	621	1248.89305453997	4
0	624	1251.564960899522	3
0	626	1258.789142084696	4
0	629	1259.044691026848	5
0	632	1259.351946403591	6
0	635	1261.009340069074	5
0	637	1262.911985705379	4
0	639	1273.429562988674	3
0	641	1283.780542879616	4
0	644	1289.632517727831	5
0	647	1292.358294702764	6
0	650	1293.23177140206	7
0	653	1293.255450711862	6
0	655	1295.762856585118	5
0	657	1297.792374159825	4
0	659	1297.89821317032	5
0	662	1305.383464972962	6
0	665	1307.781734642666	7
0	668	1311.967280244967	6
0	670	1312.883949647003	5
0	672	1314.408121190985	6
0	675	1321.676516240038	7
0	678	1326.310671926255	8
0	680	1333.197429079827	7
0	683	1334.830994544959	8
0	685	1337.472127164626	9
0	687	1340.052473924866	10
0	689	1341.295648964245	9
0	692	1342.091071529466	8
0	695	1343.205407780062	7
0	698	1343.471557583565	8
0	700	1344.808166562281	7
0	703	1346.151405435428	6
0	705	1349.849231362497	5
0	707	1354.048003553079	4
0	709	1359.085431489282	5
0	712	1365.005552983898	4
0	714	1366.722180368346	3
0	716	1396.916969139753	4
0	719	1399.68443520152	3
0	721	1403.369285925958	2
0	723	1414.482912950815	3
0	726	1425.45824454064	4
0	729	1428.142704383414	5
0	732	1432.606641430409	4
0	734	1432.667363690114	3
0	736	1440.922891547059	2
0	738	1444.786180773344	3
0	741	1453.406321611311	4
0	744	1466.2640903638	3
0	746	1474.859723475971	4
0	749	1496.639260668001	3
0	751	1503.498563728106	4
0	754	1509.975756761724	5
0	757	1517.328759404229	4
0	759	1517.382771873945	3
0	761	1521.832312049592	2
0	763	1522.727191613154	3
0	766	1529.356762481292	2
0	768	1532.437138963461	1
0	770	1534.562054352171	0
0	772	1540.336757074148	1
0	775	1541.919140967463	2
0	778	1543.534380754787	3
0	781	1554.252528630357	2
0	783	1555.819159723757	3
0	786	1558.846726274955	4
0	789	1559.875122471273	3
0	791	1570.703928928534	2
0	793	1584.423245940006	1
0	795	1586.933367507775	2
0	798	1587.549018455079	3
0	801	1591.15453985085	4
0	804	1594.297984035656	5
0	807	1595.033906918358	6
0	810	1596.03072744704	5
0	812	1597.23516107689	4
0	814	1598.604456409621	3
0	816	1603.156409736468	2
0	818	1610.164570483411	1
0	820	1616.896032697284	2
0	823	1620.266757428602	3
0	826	1622.60272213192	2
0	828	1643.242457163628	3
0	831	1650.014888977367	4
0	834	1650.712827721701	5
0	837	1651.577149995013	4
0	839	1652.160329637409	5
0	842	1653.895728245732	6
0	845	1661.884762155415	7
0	848	1663.122216072104	6
0	850	1664.528939364611	7
0	853	1665.071449668988	8
0	855	1666.687546290732	9
0	857	1668.496991036803	8
0	860	1673.848847355747	7
0	863	1680.18357195474	6
0	865	1686.210763164195	7
0	868	1688.392291532503	6
0	870	1691.557473691504	5
0	872	1697.151108602117	4
0	874	1703.788885585716	3
0	876	1704.117917720718	4
0	879	1704.860578742648	5
0	882	1708.903013965876	4
0	884	1713.729254392459	5
0	887	1715.508281961818	6
0	890	1717.026591978678	7
0	893	1719.420292490689	6
0	895	1722.135147190763	7
0	898	1724.703342442996	6
0	900	1731.612559058843	5
0	902	1736.465227461239	4
0	904	1736.918621247152	5
0	907	1741.571427293677	6
0	910	1745.001606333429	5
0	912	1747.194218846515	4
0	914	1748.521857132784	5
0	917	1749.892382393756	4
0	919	1752.231939558151	3
0	921	1760.126009472971	4
0	924	1760.513976575545	3
0	926	1761.495231020485	4
0	929	1761.597834476326	5
0	932	1762.762282081118	6
0	935	1768.760446582078	5
0	937	1771.894347650966	6
0	940	1778.92568073309	7
0	943	1781.505002375108	8
0	945	1782.912595793494	9
0	947	1790.199204704857	8
0	950	1790.322916733165	9
0	952	1793.982125750319	10
0	954	1799.460247060266	9
0	957	1800.298911882141	10
0	959	1803.169154201588	9
0	962	1803.559322996574	8
0	965	1806.004483182085	7
0	968	1809.537057283267	6
0	970	1811.436060664372	5
0	972	1811.769830232942	4
0	974	1818.50294747944	3
0	976	1825.074991905975	2
0	978	1827.107120985202	3
0	981	1828.990771432545	4
0	984	1830.632498316575	3
0	986	1839.455858557563	4
0	989	1840.626455290591	5
0	992	1845.67616859781	4
0	994	1851.043379474195	5
0	997	1862.77171366326	6
0	1000	1862.844320015973	5
0	1002	1864.805254371496	4
0	1004	1868.436334562946	5
0	1007	1872.017853281784	4
0	1009	1873.584858098006	5
0	1012	1874.667797988075	6
0	1015	1878.392937557716	5
0	1017	1880.524784587562	6
0	1020	1881.228545254981	7
0	1023	1885.876439390271	6
0	1025	1890.514268336618	5
0	1027	1901.665941933588	4
0	1029	1904.315399848907	5
0	1032	1908.409796241398	6
0	1035	1914.49505375341	5
0	1037	1916.559478205533	4
0	1039	1916.661733567157	5
0	1042	1921.781520165877	4
0	1044	1934.460156938378	3
0	1046	1943.582945320348	2
0	1048	1950.687666490122	3
0	1051	1955.301258727209	4
0	1054	1958.432596525151	5
0	1057	1959.136299399995	4
0	1059	1963.093490219361	3
0	1061	1963.418397606561	4
0	1064	1964.35721893541	3
0	1066	1967.361901874086	4
0	1069	1969.650903635541	5
0	1072	1970.10256896453	4
0	1074	1970.552991585082	3
0	1076	1973.577215168517	4
0	1079	1975.951098602714	5
0	1082	1977.924583011456	6
0	1085	1978.110683470975	7
0	1088	1978.238827185654	6
0	1090	1979.163205972623	7
0	1093	1990.544594109443	6
0	1095	1994.590124511732	5
0	1097	2000.716986917731	6
0	1100	2004.228659447582	7
0	1103	2008.212711288764	8
0	1105	2015.906426558955	9
0	1107	2024.265953245117	10
0	1109	2024.838343246731	9
0	1112	2025.112293237639	8
0	1115	2027.338755818447	9
0	1117	2030.868400119608	10
0	1119	2032.15331575971	9
0	1122	2035.397368006808	8
0	1125	2038.937435938588	9
0	1127	2039.873666118593	10
0	1129	2043.068332564813	11
0	1131	2047.830084397098	12
0	1133	2049.456375310874	11
0	1136	2052.008527953442	10
0	1139	2054.505945332879	11
0	1141	2059.56874398306	12
0	1143	2066.956928710144	11
0	1146	2081.431518486318	12
0	1148	2081.910757436347	13
0	1150	2082.731335992199	12
0	1153	2085.290135752626	11
0	1156	2088.856760378666	10
0	1159	2092.769960863054	9
0	1162	2093.720151765046	8
0	1165	2093.984932802555	7
0	1168	2095.548939022878	8
0	1170	2100.898497707432	7
0	1173	2107.517245725834	6
0	1175	2108.371905988716	5
0	1177	2108.970084096723	4
0	1179	2109.117786211294	5
0	1182	2112.675846524391	4
0	1184	2117.118444447081	5
0	1187	2118.636059456592	4
0	1189	2119.850947847931	5
0	1192	2121.647593655565	4
0	1194	2125.880239627569	3
0	1196	2130.044529715192	2
0	1198	2131.111683800144	3
0	1201	2139.53524490083	4
0	1204	2145.600327342607	5
0	1207	2146.935431380328	6
0	1210	2148.244843344959	5
0	1212	2150.241983388347	4
0	1214	2152.191359083971	3
0	1216	2157.2648920595	4
0	1219	2160.848890057107	3
0	1221	2163.275698275103	4
0	1224	2165.978228352898	5
0	1227	2175.147596264547	6
0	1230	2175.928158130733	5
0	1232	2184.724183824933	6
0	1235	2191.112325342927	5
0	1237	2192.809313312681	4
0	1239	2194.676977689714	5
0	1242	2196.46158548908	4
0	1244	2203.586381163717	3
0	1246	2212.951396615772	4
0	1249	2213.55949130124	3
0	1251	2221.047120801006	2
0	1253	2223.808906823506	3
0	1256	2239.752812840219	2
0	1258	2250.588941262771	1
0	1260	2257.918298430129	2
0	1263	2264.834231867362	3
0	1266	2279.448267484696	2
0	1268	2311.916469750779	3
0	1271	2315.747206934044	4
0	1274	2320.850655803384	3
0	1276	2322.774881297524	4
0	1279	2326.200525211099	3
0	1281	2334.361928637691	4
0	1284	2353.141605970169	5
0	1287	2353.562369491534	6
0	1290	2353.719037660278	7
0	1293	2355.939057650145	6
0	1295	2357.7492115216	5
0	1297	2368.136300279252	4
0	1299	2373.193017702567	5
0	1302	2379.055284566535	6
0	1305	2383.65170086547	7
0	1308	2385.556703216652	6
0	1310	2386.086702668793	7
0	1313	2386.539645141008	6
0	1315	2387.032856722176	5
0	1317	2394.170447542168	6
0	1320	2401.123868863182	5
0	1322	2402.754585077864	6
0	1325	2408.094194642866	5
0	1327	2416.031948749774	4
0	1329	2416.536369318794	5
0	1332	2424.973773588355	6
0	1335	2426.524492728269	7
0	1338	2432.339672526369	8
0	1340	2438.75964650208	9
0	1342	2442.047182926587	10
0	1344	2442.270044022944	9
0	1347	2445.207638514063	8
0	1350	2448.406967509831	9
0	1352	2449.457835833131	8
0	1355	2456.03752583045	9
0	1357	2465.096877670236	8
0	1360	2470.90733992463	7
0	1363	2471.63504707973	6
0	1365	2472.561118648147	5
0	1367	2476.276230203969	6
0	1370	2490.517035489253	7
0	1373	2490.821841104441	6
0	1375	2504.570992441475	5
0	1377	2504.848882678799	6
0	1380	2506.241518365087	7
0	1383	2512.898646707627	6
0	1385	2514.872443309549	7
0	1388	2517.527216782578	8
0	1390	2526.888908953368	9
0	1392	2528.490712778106	10
0	1394	2531.188445427879	11
0	1396	2536.58937208022	10
0	1399	2537.256994296621	9
0	1402	2538.010695165839	8
0	1405	2541.845868670841	9
0	1407	2550.038641947116	8
0	1410	2560.417473929918	9
0	1412	2564.261317872649	8
0	1415	2572.241801166475	9
0	1417	2572.696259192432	10
0	1419	2578.476650348052	9
0	1422	2582.189686057682	10
0	1424	2586.562636910267	11
0	1426	2590.03825095394	12
0	1428	2593.497478950356	11
0	1431	2593.936386898007	10
0	1434	2594.072440979624	9
0	1437	2598.604736445246	8
0	1440	2602.406034982815	9
0	1442	2602.613627228469	8
0	1445	2605.366206984477	7
0	1448	2607.687261965537	6
0	1450	2608.048059812846	5
0	1452	2615.29776269942	6
0	1455	2619.592610466283	5
0	1457	2628.062792668981	4
0	1459	2634.24218418216	3
0	1461	2636.267296607734	4
0	1464	2639.230800185271	5
0	1467	2640.601290412186	6
0	1470	2641.165404985555	7
0	1473	2641.853211987136	6
0	1475	2642.037447255944	5
0	1477	2642.109131751802	4
0	1479	2647.707550522044	5
0	1482	2655.537893443238	6
0	1485	2656.892353877295	5
0	1487	2658.618140162573	4
0	1489	2659.850428523866	3
0	1491	2660.337651358016	4
0	1494	2661.59500299995	3
0	1496	2661.684044884199	4
0	1499	2662.131364122856	3
0	1501	2663.502436950985	2
0	1503	2671.094686117531	1
0	1505	2672.741996933439	2
0	1508	2674.292576296591	1
0	1510	2676.104777521281	2
0	1513	2689.974434239625	1
0	1515	2690.728198732864	2
0	1518	2698.114118683797	3
0	1521	2698.487285241615	4
0	1524	2703.112741205048	3
0	1526	2714.675414152231	4
0	1529	2720.311393905869	5
0	1532	2725.558510279684	4
0	1534	2741.299935043817	5
0	1537	2748.409627648614	6
0	1540	2751.898544414411	5
0	1542	2754.299380196377	4
0	1544	2758.257770444553	5
0	1547	2758.767837323276	6
0	1550	2760.628590617113	5
0	1552	2776.841950871554	4
0	1554	2779.22316879135	5
0	1557	2779.425073838745	6
0	1560	2780.978996955742	5
0	1562	2782.703117122894	4
0	1564	2788.052751581172	3
0	1566	2804.053632498711	4
0	1569	2805.810403267153	3
0	1571	2811.237105265039	4
0	1574	2822.49775399123	3
0	1576	2826.628866192548	2
0	1578	2826.863611909493	3
0	1581	2837.190848274657	2
0	1583	2837.621078838422	3
0	1586	2845.108475394827	2
0	1588	2846.22474171818	1
0	1590	2863.745822763323	2
0	1593	2863.823671874046	3
0	1596	2874.035523652605	4
0	1599	2874.612645533463	3
0	1601	2906.305884595298	4
0	1604	2908.2859065647	5
0	1607	2908.661747260633	6
0	1610	2909.318568250884	7
0	1613	2911.703950397027	6
0	1615	2916.011108296983	7
0	1618	2920.175897102492	8
0	1620	2921.013914230951	9
0	1622	2924.482469126037	8
0	1625	2929.128928419466	7
0	1628	2930.253660071346	6
0	1630	2931.643155930682	5
0	1632	2933.355969863664	6
0	1635	2934.973106355555	5
0	1637	2936.806381603114	6
0	1640	2940.140429072516	5
0	1642	2944.41085912489	6
0	1645	2948.423982104592	7
0	1648	2949.940954627445	6
0	1650	2954.401533250708	5
0	1652	2956.157954654996	4
0	1654	2958.652408575858	5
0	1657	2962.571223784356	6
0	1660	2963.688706533127	7
0	1663	2966.455479237771	6
0	1665	2967.81138163394	7
0	1668	2982.081655828191	6
0	1670	2988.16115449478	5
0	1672	2992.997919846079	4
0	1674	3001.059396650016	3
0	1676	3002.623735853025	4
0	1679	3003.242127588612	3
0	1681	3009.610988467367	2
0	1683	3022.056606600524	1
0	1685	3023.888239018977	2
0	1688	3026.703440079417	3
0	1691	3027.520240300531	2
0	1693	3049.500952308189	3
0	1696	3051.622401905717	4
0	1699	3052.614935332012	3
0	1701	3053.212355078832	4
0	1704	3054.614790679571	5
0	1707	3055.491160674668	4
0	1709	3058.307743634824	3
0	1711	3062.15019687651	2
0	1713	3065.104674978779	3
0	1716	3074.341481806588	4
0	1719	3083.461488552831	5
0	1722	3085.697253022335	4
0	1724	3089.927212655672	3
0	1726	3090.57632639843	2
0	1728	3113.241899977462	1
0	1730	3123.43027244249	2
0	1733	3128.39475581158	1
0	1735	3132.872329244869	0
0	1737	3140.656588417483	1
0	1740	3141.126330101598	2
0	1743	3148.08301994368	3
0	1746	3153.672226655028	4
0	1749	3154.681693604214	3
0	1751	3163.271395386603	4
0	1754	3166.331381205808	5
0	1757	3168.646553187448	6
0	1760	3173.670024080001	5
0	1762	3174.201401466593	4
0	1764	3174.84072956273	3
0	1766	3177.210664085582	2
0	1768	3179.797406176756	1
0	1770	3180.467691802409	2
0	1773	3193.877380992109	3
0	1776	3195.140890487381	4
0	1779	3195.220759747932	3
0	1781	3200.777387571487	2
0	1783	3201.761787669376	3
0	1786	3205.434547835374	2
0	1788	3213.761818502762	3
0	1791	3216.73347713836	4
0	1794	3217.43050614784	3
0	1796	3220.272674083151	4
0	1799	3224.028026458488	5
0	1802	3224.277363246522	6
0	1805	3227.208645706178	5
0	1807	3238.076885270493	6
0	1810	3239.342032863639	5
0	1812	3243.255348183536	4
0	1814	3254.386862215908	5
0	1817	3256.663285584903	4
0	1819	3262.672473491356	3
0	1821	3263.391011119674	2
0	1823	3273.249073109891	3
0	1826	3285.429492501679	4
0	1829	3300.562954968831	3
0	1831	3305.461102488953	4
0	1834	3306.932983291071	5
0	1837	3309.018195065981	6
0	1840	3309.063710906994	5
0	1842	3315.592425800782	4
0	1844	3327.94311618233	3
0	1846	3332.772946523993	2
0	1848	3332.826868948903	3
0	1851	3334.1240082979	4
0	1854	3358.539758996053	5
0	1857	3363.563455521418	4
0	1859	3370.114230782044	5
0	1862	3370.135611674487	4
0	1864	3370.587077375389	5
0	1867	3373.79022995347	6
0	1870	3376.609016772552	7
0	1873	3382.640478394129	6
0	1875	3390.976306393928	5
0	1877	3397.006449348578	6
0	1880	3405.455484901207	7
0	1883	3409.538862933972	8
0	1885	3429.790501566085	9
0	1887	3430.212728877339	8
0	1890	3431.358761371116	9
0	1892	3431.611032634526	10
0	1894	3432.436500000536	11
0	1896	3436.642192248693	10
0	1899	3439.509620600429	9
0	1902	3440.222279605445	10
0	1904	3441.278551197518	11
0	1906	3441.757932263749	12
0	1908	3446.038601108425	11
0	1911	3449.682965434021	12
0	1913	3453.637069444972	11
0	1916	3455.221344315586	10
0	1919	3457.67614827514	9
0	1922	3460.615643310546	8
0	1925	3461.212325597862	9
0	1927	3466.377220939686	10
0	1929	3467.103022065394	9
0	1932	3469.081485788221	10
0	1934	3478.647980494781	9
0	1937	3478.774543975164	10
0	1939	3478.950624818277	9
0	1942	3481.816607235369	8
0	1945	3482.875581558412	7
0	1948	3483.197344702593	6
0	1950	3483.681147627894	7
0	1953	3484.544170759894	8
0	1955	3490.609756279816	7
0	1958	3500.898945024575	6
0	1960	3504.282934615087	7
0	1963	3505.06099021691	8
0	1965	3505.166036780633	9
0	1967	3508.454998312267	8
0	1970	3510.108564535815	7
0	1973	3515.494989035527	8
0	1975	3521.097996092838	9
0	1977	3521.104318631155	8
0	1980	3524.808853535818	9
0	1982	3525.435813225262	10
0	1984	3528.135212231198	11
0	1986	3528.302631761994	10
0	1989	3531.311058211608	11
0	1991	3536.438502136744	10
0	1994	3538.63827827114	9
0	1997	3548.235039089391	10
0	1999	3548.51269604223	11
0	2001	3548.794369408837	12
0	2003	3549.577084700444	13
0	2005	3549.724068209883	14
0	2007	3552.120529503995	13
0	2010	3558.497063660665	12
0	2013	3558.64591939315	13
0	2015	3561.676948941576	12
0	2018	3561.704389482961	13
0	2020	3562.821632297552	12
0	2023	3568.457889817031	11
0	2026	3568.930093359971	10
0	2029	3573.890377249524	9
0	2032	3578.224506886253	8
0	2035	3579.129391972135	7
0	2038	3580.991724919025	6
0	2040	3585.603674898638	5
0	2042	3589.675055550175	4
0	2044	3600.359104570988	3
0	2046	3604.246518803333	4
0	2049	3608.008190396998	5
0	2052	3614.248248454275	4
0	2054	3616.451812792622	3
0	2056	3620.575802678935	4
0	2059	3640.223467749675	3
0	2061	3646.710266635179	2
0	2063	3660.270984311725	1
0	2065	3666.818429787443	2
0	2068	3667.559544614237	3
0	2071	3670.326179981827	2
0	2073	3681.060996315028	3
0	2076	3684.703041417405	2
0	2078	3686.861047274056	3
0	2081	3691.329529357685	2
0	2083	3693.407780611927	1
0	2085	3695.067738792801	2
0	2088	3707.589134810151	1
0	2090	3713.394554241765	2
0	2093	3714.72857212435	3
0	2096	3717.620360318828	4
0	2099	3720.464564204427	3
0	2101	3728.186185615957	4
0	2104	3732.70848849445	3
0	2106	3733.892056990626	2
0	2108	3741.375456715015	3
0	2111	3744.086060040391	4
0	2114	3746.060979458181	3
0	2116	3747.972012878854	4
0	2119	3751.657292823431	5
0	2122	3754.728560984116	6
0	2125	3754.863547439592	7
0	2128	3757.668200717011	6
0	2130	3758.594027431459	7
0	2133	3762.050857002431	6
0	2135	3763.094518439941	5
0	2137	3766.845508600759	4
0	2139	3773.931858010036	5
0	2142	3774.366098936758	4
0	2144	3781.35734520048	5
0	2147	3784.319954894008	6
0	2150	3785.967565289832	5
0	2152	3787.276014812434	6
0	2155	3792.304910958525	5
0	2157	3793.897256927983	6
0	2160	3809.703863593096	5
0	2162	3809.875939660341	4
0	2164	3816.505469924988	3
0	2166	3818.051339903024	4
0	2169	3818.814028424645	5
0	2172	3822.597947719891	6
0	2175	3829.766531655713	5
0	2177	3835.182856594794	6
0	2180	3836.529081353505	5
0	2182	3838.05212398613	4
0	2184	3838.912892511251	3
0	2186	3839.822826149987	4
0	2189	3840.059982773302	5
0	2192	3842.825558526609	6
0	2195	3843.284275522733	7
0	2198	3844.150114842513	6
0	2200	3847.532026313491	5
0	2202	3850.20691506714	6
0	2205	3858.097330354439	5
0	2207	3860.400641982003	6
0	2210	3860.665431851668	5
0	2212	3862.831597697824	6
0	2215	3863.084923023921	7
0	2218	3866.610799477656	6
0	2220	3868.815678111757	5
0	2222	3872.453092873396	6
0	2225	3877.724619743114	7
0	2228	3881.009747092919	6
0	2230	3886.09342086541	7
0	2233	3891.373131698452	6
0	2235	3896.03872463639	7
0	2238	3912.700802723356	8
0	2240	3917.93998375896	9
0	2242	3919.966633422268	8
0	2245	3921.108678558511	7
0	2248	3924.161340822405	6
0	2250	3925.239633314814	7
0	2253	3934.228469357905	6
0	2255	3938.155883180903	7
0	2258	3941.978885639402	6
0	2260	3950.217111054925	5
0	2262	3952.891801849626	4
0	2264	3954.582532534698	5
0	2267	3955.075608330753	4
0	2269	3960.950603721598	5
0	2272	3966.935527015652	4
0	2274	3973.124570897163	3
0	2276	3982.266429054956	4
0	2279	3989.655045525077	5
0	2282	3991.238232329473	6
0	2285	3994.365494301366	5
0	2287	3999.001869020401	4
0	2289	4001.080326396615	3
0	2291	4002.631171544547	4
0	2294	4006.278055344245	5
0	2297	4006.371090458984	6
0	2300	4006.480051403338	5
0	2302	4008.64875607619	6
0	2305	4011.937619631004	5
0	2307	4029.786635816602	6
0	2310	4032.689131533246	7
0	2313	4040.39848783663	8
0	2315	4041.995511465824	9
0	2317	4044.344922241051	8
0	2320	4050.511327248527	7
0	2323	4053.881466906931	6
0	2325	4054.908382803115	7
0	2328	4064.213802353783	6
0	2330	4068.799314679761	5
0	2332	4070.418731765498	6
0	2335	4070.438474534912	5
0	2337	4070.51492959147	6
0	2340	4070.525009729704	7
0	2343	4070.7210777795	6
0	2345	4077.044361545957	5
0	2347	4077.15446489328	6
0	2350	4084.185226036418	5
0	2352	4084.672875720083	4
0	2354	4085.754342263439	3
0	2356	4087.250229830759	2
0	2358	4106.440858511047	1
0	2360	4107.288282869212	2
0	2363	4109.131356284526	3
0	2366	4115.64637246793	4
0	2369	4118.172186527327	5
0	2372	4120.829956737092	6
0	2375	4122.382295299603	5
0	2377	4124.668756858023	6
0	2380	4126.841514229473	7
0	2383	4127.878988365053	6
0	2385	4144.780005921935	5
0	2387	4151.021404940792	4
0	2389	4155.300674255924	3
0	2391	4168.463068518099	2
0	2393	4183.416274623738	3
0	2396	4183.682440112225	2
0	2398	4189.124674518855	3
0	2401	4189.818141370902	2
0	2403	4189.936847804748	1
0	2405	4210.078277138547	0
0	2407	4226.067288562618	1
0	2410	4233.397808881991	2
0	2413	4233.753426890684	1
0	2415	4244.944256852916	2
0	2418	4246.401323995015	3
0	2421	4246.997677715911	4
0	2424	4251.296504526393	5
0	2427	4254.165649245441	4
0	2429	4276.071278383738	3
0	2431	4280.502369065303	4
0	2434	4282.234368262494	5
0	2437	4291.739040885919	4
0	2439	4292.78442525042	3
0	2441	4294.099138241809	2
0	2443	4316.120725250234	3
0	2446	4324.228276755542	4
0	2449	4326.425816675175	5
0	2452	4331.214828049569	6
0	2455	4336.77628932909	7
0	2458	4340.044808181456	8
0	2460	4340.54131939893	7
0	2463	4346.110269651594	6
0	2465	4349.561095474294	7
0	2468	4352.228871895898	6
0	2470	4352.255306541429	7
0	2473	4352.948147773632	6
0	2475	4354.720425593124	7
0	2478	4355.505661216733	8
0	2480	4364.747742999797	7
0	2483	4365.554264519335	6
0	2485	4372.606834042713	5
0	2487	4373.756365051748	4
0	2489	4377.796020246749	3
0	2491	4382.426055878908	4
0	2494	4383.453526783813	5
0	2497	4394.786147286202	4
0	2499	4395.178696840748	3
0	2501	4401.762635751848	4
0	2504	4404.608078032501	5
0	2507	4407.032844588289	4
0	2509	4410.571763122933	5
0	2512	4412.148957518442	6
0	2515	4413.499952453128	5
0	2517	4417.815369966033	6
0	2520	4421.599006827898	7
0	2523	4426.218054030116	8
0	2525	4427.862368788819	7
0	2528	4435.734863324343	8
0	2530	4435.815784042804	9
0	2532	4439.794862443595	10
0	2534	4446.389366349519	9
0	2537	4451.265856560705	8
0	2540	4455.087510335103	9
0	2542	4459.386876859522	10
0	2544	4466.919932536422	9
0	2547	4468.5331050274	10
0	2549	4468.994259744066	9
0	2552	4472.286223395777	8
0	2555	4476.997585567232	9
0	2557	4493.841540976173	8
0	2560	4501.83167900748	9
0	2562	4506.44009928933	8
0	2565	4509.619449003825	7
0	2568	4519.100372495093	6
0	2570	4526.007133752049	5
0	2572	4526.455886759774	6
0	2575	4528.719265247162	7
0	2578	4528.96551940211	6
0	2580	4535.217607475404	5
0	2582	4536.007547847764	4
0	2584	4556.649322988338	3
0	2586	4557.88469107392	4
0	2589	4559.078566555046	5
0	2592	4561.698115516592	4
0	2594	4563.544010259844	5
0	2597	4572.594369060969	6
0	2600	4572.713884935823	5
0	2602	4573.554413358755	6
0	2605	4581.628316987083	7
0	2608	4595.655883762193	6
0	2610	4603.255790313968	7
0	2613	4605.268472643557	6
0	2615	4606.060118766464	5
0	2617	4610.861052684585	6
0	2620	4611.3554485775	5
0	2622	4612.705348100536	6
0	2625	4618.991644549828	5
0	2627	4619.910032675604	4
0	2629	4620.824218873263	3
0	2631	4633.400087216831	4
0	2634	4636.653807598529	5
0	2637	4637.147085232525	6
0	2640	4638.32103424318	5
0	2642	4642.938938651392	4
0	2644	4665.267193231804	5
0	2647	4675.502623385334	6
0	2650	4680.510792675159	7
0	2653	4692.400163547972	6
0	2655	4696.919683864284	5
0	2657	4696.928892472228	4
0	2659	4709.629407165942	5
0	2662	4713.096907889728	6
0	2665	4713.634085876741	7
0	2668	4718.479689279943	6
0	2670	4733.538462648523	5
0	2672	4734.135504909959	6
0	2675	4734.626315870257	5
0	2677	4736.66630952501	4
0	2679	4741.345992242254	5
0	2682	4741.864940692279	4
0	2684	4743.091204177531	5
0	2687	4744.049904596846	4
0	2689	4744.470002877591	5
0	2692	4749.285753867084	6
0	2695	4775.695937519026	5
0	2697	4775.743316811898	4
0	2699	4777.432014825945	3
0	2701	4778.111533167576	2
0	2703	4791.16360889495	3
0	2706	4791.530806841121	4
0	2709	4806.429269569697	3
0	2711	4807.327498194072	4
0	2714	4815.44828878872	5
0	2717	4818.632788758654	4
0	2719	4819.081622686732	5
0	2722	4826.489125071096	4
0	2724	4834.392638872588	5
0	2727	4841.926121138801	4
0	2729	4845.371850541407	3
0	2731	4855.364481310967	2
0	2733	4863.146850028001	1
0	2735	4876.876371734375	2
0	2738	4890.692889439354	3
0	2741	4893.820292992432	4
0	2744	4896.549208574435	3
0	2746	4898.41171251373	4
0	2749	4901.198833717853	3
0	2751	4902.136849925242	2
0	2753	4902.773086068973	3
0	2756	4904.025339883415	2
0	2758	4905.316712073168	1
0	2760	4912.791478385229	2
0	2763	4913.187412917565	3
0	2766	4914.302521442936	4
0	2769	4917.965391170433	5
0	2772	4922.115319857244	4
0	2774	4926.39490289556	5
0	2777	4927.849635212815	6
0	2780	4932.155388513255	5
0	2782	4937.54260241762	4
0	2784	4943.587077028635	3
0	2786	4949.489836213863	4
0	2789	4950.885091508323	5
0	2792	4952.362692771473	4
0	2794	4953.757916786605	3
0	2796	4956.330315271725	4
0	2799	4958.707399267908	3
0	2801	4960.106050236259	4
0	2804	4967.34842318562	3
0	2806	4973.62816200638	4
0	2809	4975.680337341959	5
0	2812	4976.092624052167	6
0	2815	4976.959133550838	5
0	2817	4977.543461038031	4
0	2819	4978.861370157645	5
0	2822	4979.28522143847	6
0	2825	4983.62383178801	7
0	2828	4983.629829392046	6
0	2830	4984.425489379104	7
0	2833	4989.887550970258	6
0	2835	4992.095226083948	5
0	2837	4993.178321812186	4
0	2839	4997.53856919499	5
0	2842	4998.113117365337	6
0	2845	4998.201562415643	7
0	2848	4998.608691067608	6
0	2850	5003.934621293054	7
0	2853	5005.231107113268	8
0	2855	5005.826326919555	9
0	2857	5006.921057163775	8
0	2860	5015.332777438137	7
0	2863	5020.680603866868	6
0	2865	5025.71046580628	5
0	2867	5027.639382021449	4
0	2869	5034.522047347206	3
0	2871	5036.459354237124	4
0	2874	5040.498283019737	5
0	2877	5040.832784703642	6
0	2880	5041.211747612036	7
0	2883	5041.213497451174	8
0	2885	5042.917805481871	9
0	2887	5047.340153356458	8
0	2890	5050.583464222827	7
0	2893	5059.13604029236	8
0	2895	5063.102156322929	7
0	2898	5065.938445988366	6
0	2900	5068.616889012513	7
0	2903	5069.373786344831	6
0	2905	5069.51980530023	7
0	2908	5077.495800764374	8
0	2910	5077.708254799583	7
0	2913	5085.546919783026	6
0	2915	5087.171707147223	5
0	2917	5091.209314459303	4
0	2919	5092.422170772812	3
0	2921	5094.802181207815	4
0	2924	5109.615892061854	5
0	2927	5118.075882471684	6
0	2930	5118.980220318997	7
0	2933	5119.69345442897	6
0	2935	5120.476751408731	7
0	2938	5132.604088636416	6
0	2940	5135.883913898878	5
0	2942	5139.199003234069	6
0	2945	5139.329872736341	7
0	2948	5140.628972961742	6
0	2950	5142.543228921712	7
0	2953	5143.789321458794	8
0	2955	5146.822285900246	7
0	2958	5148.694119036438	6
0	2960	5160.203863496374	5
0	2962	5163.316236210298	4
0	2964	5164.73765167159	5
0	2967	5166.234171561503	6
0	2970	5172.338357929064	5
0	2972	5175.679210039374	6
0	2975	5175.98279896704	5
0	2977	5183.678952206511	4
0	2979	5192.956129273323	3
0	2981	5193.548135158474	4
0	2984	5194.67077230434	5
0	2987	5196.242689956585	4
0	2989	5196.456154749861	5
0	2992	5197.994221404293	4
0	2994	5201.932741041519	5
0	2997	5206.969021030036	6
0	3000	5207.766876462987	7
0	3003	5208.616790068593	6
0	3005	5209.113487432724	7
0	3008	5209.268152620394	6
0	3010	5218.274127204126	5
0	3012	5220.717735698907	6
0	3015	5221.53313970668	5
0	3017	5222.414656568882	6
0	3020	5223.94086609693	7
0	3023	5227.425417477717	8
0	3025	5229.395436764556	9
0	3027	5230.015566586422	8
0	3030	5230.492244732469	9
0	3032	5236.009248757933	10
0	3034	5236.799521709905	9
0	3037	5240.014527810522	8
0	3040	5240.132669836184	9
0	3042	5240.535694649786	10
0	3044	5244.879265613213	9
0	3047	5246.607548353088	8
0	3050	5247.668250881546	7
0	3053	5251.876094216318	6
0	3055	5253.360337370801	5
0	3057	5255.758440852052	6
0	3060	5263.000019448219	7
0	3063	5265.612651643333	8
0	3065	5274.590093253523	7
0	3068	5279.661835036401	8
0	3070	5279.977184920723	7
0	3073	5284.087573437078	8
0	3075	5288.808918865443	7
0	3078	5289.001999012064	6
0	3080	5291.274043717821	7
0	3083	5294.437477027353	6
0	3085	5301.528547589078	7
0	3088	5305.804868824209	6
0	3090	5312.566179122791	5
0	3092	5313.559570603975	4
0	3094	5336.219159775841	3
0	3096	5339.913134479048	4
0	3099	5341.046333944588	3
0	3101	5346.121026686054	2
0	3103	5348.457206773328	3
0	3106	5354.871825737168	2
0	3108	5357.730297480828	3
0	3111	5360.807114892218	4
0	3114	5362.711682820751	5
0	3117	5363.499253019139	6
0	3120	5365.971128285618	7
0	3123	5366.23988153658	8
0	3125	5366.515605517175	9
0	3127	5372.919728281068	8
0	3130	5373.673885135356	9
0	3132	5374.433704107668	10
0	3134	5375.718448350795	11
0	3136	5381.948451434093	10
0	3139	5388.33422222865	9
0	3142	5394.021148696801	8
0	3145	5395.380493307127	7
0	3148	5396.936021191285	8
0	3150	5397.046599015978	7
0	3153	5399.468115867133	8
0	3155	5407.878177634552	9
0	3157	5409.489770182152	8
0	3160	5415.479530354985	7
0	3163	5419.318331889615	6
0	3165	5436.239359934287	5
0	3167	5440.231696195323	6
0	3170	5443.103682767528	7
0	3173	5445.965359163865	6
0	3175	5449.361897542759	5
0	3177	5457.212580510765	6
0	3180	5457.89290033925	7
0	3183	5478.402072236992	6
0	3185	5479.699785477631	5
0	3187	5494.039618272095	6
0	3190	5494.588522234452	5
0	3192	5494.798166958546	6
0	3195	5499.694263514852	5
0	3197	5525.1152176221	4
0	3199	5534.566516349913	5
0	3202	5539.180213939727	4
0	3204	5543.409627206076	3
0	3206	5548.412578637082	4
0	3209	5555.032357730784	5
0	3212	5559.536923638008	4
0	3214	5559.657241740465	5
0	3217	5561.452493155932	6
0	3220	5562.347301332024	5
0	3222	5564.354324235528	4
0	3224	5564.435143545132	5
0	3227	5568.879862495528	6
0	3230	5571.798764383436	5
0	3232	5574.848151120823	4
0	3234	5594.301011271988	3
0	3236	5598.859220073819	2
0	3238	5606.643741860513	3
0	3241	5609.95222348926	4
0	3244	5613.705923098173	5
0	3247	5631.22905572894	4
0	3249	5632.011766759074	3
0	3251	5632.929494841785	4
0	3254	5633.76384747275	3
0	3256	5636.745453399089	2
0	3258	5638.428745852997	3
0	3261	5642.631004338851	4
0	3264	5643.585586465184	5
0	3267	5643.643137409552	6
0	3270	5643.913911824564	7
0	3273	5644.628151372226	6
0	3275	5646.169736989926	5
0	3277	5646.319135123923	4
0	3279	5650.258645654715	5
0	3282	5658.147719290161	6
0	3285	5659.149789523187	7
0	3288	5659.714405763926	6
0	3290	5662.476532507945	7
0	3293	5663.939732297323	6
0	3295	5668.206617268426	5
0	3297	5672.118310710787	6
0	3300	5672.251228278035	5
0	3302	5674.626484335546	6
0	3305	5674.679411825356	7
0	3308	5676.408943256636	8
0	3310	5682.546238003629	7
0	3313	5682.594326852494	6
0	3315	5684.106437742487	7
0	3318	5684.376965503349	6
0	3320	5689.409529307259	5
0	3322	5689.642842983286	6
0	3325	5694.536193617168	7
0	3328	5698.09348277272	6
0	3330	5701.010622524977	5
0	3332	5732.932563287106	6
0	3335	5734.431553181137	7
0	3338	5735.581154758372	6
0	3340	5736.335671879534	5
0	3342	5743.117370828553	6
0	3345	5752.214438042138	7
0	3348	5757.685560973158	6
0	3350	5758.670700841266	5
0	3352	5759.520762112545	4
0	3354	5770.68906463193	5
0	3357	5771.314640695848	6
0	3360	5772.241071450811	5
0	3362	5774.458306435213	4
0	3364	5780.386134530457	3
0	3366	5800.207976664207	4
0	3369	5804.138477871251	5
0	3372	5805.865737352802	6
0	3375	5806.498075800558	5
0	3377	5807.604328079541	4
0	3379	5808.443779935504	5
0	3382	5808.567639379437	6
0	3385	5811.082165018127	7
0	3388	5814.370872593542	6
0	3390	5814.525760241953	5
0	3392	5815.692132415379	4
0	3394	5815.884772091919	5
0	3397	5836.285023803011	4
0	3399	5838.216979303213	5
0	3402	5841.185774121787	4
0	3404	5842.379544864106	3
0	3406	5846.710377194131	2
0	3408	5850.316680636945	1
0	3410	5857.784855113702	2
0	3413	5869.844709333388	3
0	3416	5878.570425509289	2
0	3418	5883.155499579257	1
0	3420	5885.679210054302	2
0	3423	5897.773594155562	3
0	3426	5902.093334757412	2
0	3428	5919.2775060839	3
0	3431	5920.230842373396	4
0	3434	5920.500686224762	5
0	3437	5920.725394595413	6
0	3440	5928.671608487985	5
0	3442	5931.305609541179	4
0	3444	5940.565461549136	5
0	3447	5943.414563225088	4
0	3449	5944.799855761863	5
0	3452	5945.701095132601	6
0	3455	5946.938539396401	5
0	3457	5949.617858610165	4
0	3459	5961.706585741856	5
0	3462	5963.192742160027	6
0	3465	5970.874871483587	7
0	3468	5984.336073013439	6
0	3470	5986.248654234294	5
0	3472	5994.992906929588	6
0	3475	6006.941689746655	7
0	3478	6013.055671453902	6
0	3480	6013.214057718716	5
0	3482	6014.136884685257	4
0	3484	6021.028126882211	5
0	3487	6024.934680651557	6
0	3490	6030.120624177635	5
0	3492	6033.402048315727	4
0	3494	6036.354317632516	3
0	3496	6041.172245292231	4
0	3499	6041.255232013554	3
0	3501	6044.861596796914	4
0	3504	6045.108982070304	3
0	3506	6064.790426802972	4
0	3509	6074.21609257693	5
0	3512	6079.313218724704	6
0	3515	6079.483087760257	5
0	3517	6079.670732932022	6
0	3520	6084.955041454697	7
0	3523	6085.774115274169	6
0	3525	6086.168431614802	5
0	3527	6093.716101719916	4
0	3529	6093.887217561585	3
0	3531	6094.220889401305	4
0	3534	6094.413641807072	5
0	3537	6109.488905876106	4
0	3539	6124.295666241427	3
0	3541	6126.276065204255	2
0	3543	6128.964637876422	3
0	3546	6135.982990907921	2
0	3548	6136.853472110635	1
0	3550	6139.884659118332	2
0	3553	6140.514470028912	3
0	3556	6145.162582344386	4
0	3559	6156.045511745806	5
0	3562	6163.790686655182	6
0	3565	6170.69134903631	7
0	3568	6172.879793933783	6
0	3570	6175.410867042339	7
0	3573	6178.020573604847	8
0	3575	6183.112453719494	7
0	3578	6186.542873116143	6
0	3580	6187.669232155284	7
0	3583	6196.364393158797	6
0	3585	6199.397597192499	7
0	3588	6219.271345829679	6
0	3590	6219.828565690985	5
0	3592	6221.062058492972	4
0	3594	6225.454280138309	3
0	3596	6229.155195811606	2
0	3598	6235.186334770101	1
0	3600	6252.88767616882	2
0	3603	6260.510395030537	3
0	3606	6265.820736426156	2
0	3608	6274.213627646368	3
0	3611	6280.313688309862	2
0	3613	6297.223503037694	3
0	3616	6305.117470006936	2
0	3618	6306.216047777711	3
0	3621	6310.618842823188	2
0	3623	6311.973554608159	3
0	3626	6315.282608617405	4
0	3629	6321.293085470871	3
0	3631	6325.038058012576	4
0	3634	6333.851152625593	3
0	3636	6334.187612193602	4
0	3639	6334.814568814045	3
0	3641	6344.666565123152	4
0	3644	6349.771197538695	5
0	3647	6350.404616857616	6
0	3650	6351.07799792677	7
0	3653	6352.272478744355	8
0	3655	6353.666430072229	7
0	3658	6356.916053236762	6
0	3660	6358.163690472475	5
0	3662	6363.361339052355	6
0	3665	6368.787308500078	7
0	3668	6374.485004949625	6
0	3670	6377.64926981852	7
0	3673	6379.207283930943	8
0	3675	6379.39152006929	9
0	3677	6380.910407705325	8
0	3680	6381.591874603111	7
0	3683	6381.913517669715	8
0	3685	6382.445712780177	9
0	3687	6385.26916649657	10
0	3689	6395.29067564831	9
0	3692	6397.683015023632	8
0	3695	6398.3741593828	9
0	3697	6401.430820290119	10
0	3699	6404.166375611925	9
0	3702	6406.292944895517	8
0	3705	6409.084793791072	9
0	3707	6411.060505694646	8
0	3710	6412.982917662572	7
0	3713	6416.136597958627	6
0	3715	6417.874644962152	5
0	3717	6418.81939231977	6
0	3720	6419.706937477933	5
0	3722	6424.397868928608	6
0	3725	6424.457802849186	7
0	3728	6426.415274111374	6
0	3730	6429.88426324777	7
0	3733	6440.096964304806	8
0	3735	6440.3272767227	7
0	3738	6442.247315395759	8
0	3740	6444.109552216139	7
0	3743	6453.110762076616	6
0	3745	6453.170514931642	5
0	3747	6465.129852472582	6
0	3750	6470.374586247924	5
0	3752	6474.777742521092	6
0	3755	6478.291958019764	7
0	3758	6484.829803613702	6
0	3760	6485.352286847884	5
0	3762	6486.183079329027	4
0	3764	6486.973857345723	3
0	3766	6494.498752633718	4
0	3769	6504.491419420446	5
0	3772	6506.606958296241	4
0	3774	6510.708516192364	3
0	3776	6513.153295608209	4
0	3779	6516.498041224743	5
0	3782	6523.647056031773	6
0	3785	6531.025407197725	5
0	3787	6547.248259189053	4
0	3789	6554.764326305606	3
0	3791	6557.579851075883	4
0	3794	6558.690316309729	5
0	3797	6560.711404367038	6
0	3800	6561.768814097224	5
0	3802	6564.64672803206	4
0	3804	6571.794279517251	5
0	3807	6573.271469452045	6
0	3810	6575.482340109567	5
0	3812	6581.227086610213	6
0	3815	6586.252293788679	7
0	3818	6594.021162862259	6
0	3820	6599.001266110971	7
0	3823	6599.659802779821	6
0	3825	6600.7716854649	5
0	3827	6610.091877706353	6
0	3830	6613.654230090442	7
0	3833	6615.240766621025	6
0	3835	6618.596410793538	7
0	3838	6620.688265995181	8
0	3840	6626.54598602472	9
0	3842	6628.435791272116	8
0	3845	6629.083483137067	7
0	3848	6630.59753288343	6
0	3850	6632.394653108924	7
0	3853	6638.292960145731	6
0	3855	6639.88399882118	7
0	3858	6640.052457485547	8
0	3860	6642.173137719753	7
0	3863	6644.924796756382	8
0	3865	6645.376777949331	7
0	3868	6649.596546576774	6
0	3870	6653.720520674087	5
0	3872	6661.144430198671	4
0	3874	6663.117527633479	3
0	3876	6667.305660785658	4
0	3879	6670.781103670197	3
0	3881	6680.790063178982	4
0	3884	6683.070182935357	5
0	3887	6685.995187890993	6
0	3890	6687.016616700929	7
0	3893	6689.604750452666	8
0	3895	6690.398865544739	7
0	3898	6692.497840807102	8
0	3900	6693.224928661003	7
0	3903	6696.091687763494	8
0	3905	6696.637734736829	9
0	3907	6696.994973302552	8
0	3910	6701.36492929279	7
0	3913	6704.209942374248	6
0	3915	6707.327622519145	5
0	3917	6710.286624672731	6
0	3920	6711.465332951957	7
0	3923	6712.174800109622	6
0	3925	6712.22777021001	5
0	3927	6724.083978634907	4
0	3929	6731.125164400715	3
0	3931	6732.782362349489	4
0	3934	6737.599306488773	3
0	3936	6739.069673536913	2
0	3938	6750.317732927491	3
0	3941	6759.388923452062	4
0	3944	6760.373516736574	5
0	3947	6768.544876301749	4
0	3949	6774.337931863802	3
0	3951	6778.960751533914	2
0	3953	6781.884221681135	3
0	3956	6797.661577198879	2
0	3958	6797.80277281503	1
0	3960	6797.912807921296	2
0	3963	6806.291755619751	3
0	3966	6807.397553846178	4
0	3969	6813.088126891599	5
0	3972	6832.464419784334	6
0	3975	6834.954944493184	5
0	3977	6836.796384997099	4
0	3979	6837.112723071779	5
0	3982	6840.762153029433	6
0	3985	6841.319206031658	7
0	3988	6843.176476593984	6
0	3990	6843.547089051684	5
0	3992	6847.044281575545	6
0	3995	6848.324374149457	5
0	3997	6856.213799125711	4
0	3999	6859.875587624852	5
0	4002	6861.469057210702	4
0	4004	6869.350578277056	3
0	4006	6870.258589163101	4
0	4009	6870.481945676886	5
0	4012	6870.86239041673	6
0	4015	6872.201502069264	5
0	4017	6877.83895028227	4
0	4019	6879.522046015174	5
0	4022	6880.69946433088	4
0	4024	6885.440036737095	5
0	4027	6893.76380796403	6
0	4030	6899.156521127206	5
0	4032	6902.38875585024	4
0	4034	6904.484617446715	5
0	4037	6904.715527009686	4
0	4039	6910.058420105818	3
0	4041	6917.321480194215	4
0	4044	6922.824124327557	5
0	4047	6924.874458421729	6
0	4050	6929.236574551819	5
0	4052	6932.718125941255	6
0	4055	6934.033487080977	7
0	4058	6936.688681325611	8
0	4060	6941.949343831045	7
0	4063	6943.455791003938	8
0	4065	6951.439398640843	7
0	4068	6958.752997402733	8
0	4070	6962.970997864932	9
0	4072	6969.768786505103	10
0	4074	6987.688333687054	11
0	4076	6992.662607856775	10
0	4079	6994.926760939134	11
0	4081	6996.591166540802	12
0	4083	7007.681213816104	13
0	4085	7008.326594520426	12
0	4088	7008.812479965429	13
0	4090	7010.795562170798	12
0	4093	7010.899150495614	13
0	4095	7014.004682564625	14
0	4097	7014.661226608767	15
0	4099	7021.408078910326	16
0	4101	7024.212648204607	15
0	4104	7026.345937882895	16
0	4106	7026.649961050993	15
0	4109	7031.144197896618	14
0	4112	7034.892396022111	13
0	4115	7035.260294837974	12
0	4118	7043.556059764853	11
0	4121	7047.243951779738	12
0	4123	7047.625519491697	11
0	4126	7048.101517904557	10
0	4129	7049.668353769041	11
0	4131	7050.602524603727	12
0	4133	7050.643369659832	11
0	4136	7054.969522767954	10
0	4139	7056.102200077936	9
0	4142	7060.668046343614	10
0	4144	7061.271393570235	11
0	4146	7064.232829264919	12
0	4148	7065.366063010709	11
0	4151	7072.365134320009	12
0	4153	7082.020242722927	11
0	4156	7086.347309419614	10
0	4159	7086.909759174866	9
0	4162	7092.534631705193	10
0	4164	7096.455512795216	11
0	4166	7102.365726937262	12
0	4168	7102.439306447131	11
0	4171	7104.461120982856	12
0	4173	7105.532537112105	11
0	4176	7107.298940218565	10
0	4179	7109.650205434627	11
0	4181	7114.109624227151	12
0	4183	7122.074156061846	11
0	4186	7122.954151312987	12
0	4188	7123.038578509919	13
0	4190	7128.406677467289	12
0	4193	7129.44240493409	11
0	4196	7130.965541682293	10
0	4199	7132.114441041024	9
0	4202	7140.526605602665	8
0	4205	7141.037769790148	7
0	4208	7141.053920997714	6
0	4210	7142.610377270682	7
0	4213	7147.758975420564	6
0	4215	7147.775531303562	5
0	4217	7149.175748435516	6
0	4220	7155.02515027704	7
0	4223	7156.19976966191	8
0	4225	7157.997353531369	7
0	4228	7163.163646511453	6
0	4230	7170.40432398002	7
0	4233	7172.263362016522	8
0	4235	7172.6804909002	7
0	4238	7173.146652482333	6
0	4240	7173.391349317076	7
0	4243	7177.928479160824	6
0	4245	7178.049651463432	7
0	4248	7178.074745238804	8
0	4250	7180.344919620958	7
0	4253	7182.879366814261	6
0	4255	7187.348050248792	5
0	4257	7192.853131921166	6
0	4260	7193.32511323606	5
0	4262	7197.115359073303	4
0	4264	7198.028782957979	5
0	4267	7198.615341799604	4
0	4269	7199.036312179302	5
0	4272	7199.961753942704	4
0	4274	7202.359088178014	3
0	4276	7206.724334956514	2
0	4278	7209.383327286506	1
0	4280	7210.262508510046	2
0	4283	7230.378034883608	3
0	4286	7236.707693404556	4
0	4289	7237.349734144698	3
0	4291	7253.501343969605	4
0	4294	7260.955567989046	5
0	4297	7272.274193505434	4
0	4299	7274.424215993217	3
0	4301	7287.044939931812	4
0	4304	7287.27386648033	3
0	4306	7294.597497037465	2
0	4308	7310.199263482471	3
0	4311	7313.396219839493	4
0	4314	7326.929566940442	3
0	4316	7329.446135576675	4
0	4319	7335.472432133914	3
0	4321	7338.724217605362	4
0	4324	7339.790224007667	5
0	4327	7343.184913528526	6
0	4330	7344.856931037337	5
0	4332	7344.967059869719	4
0	4334	7346.690393486282	3
0	4336	7360.568242685928	4
0	4339	7365.421847830488	5
0	4342	7375.690302155757	6
0	4345	7381.746535273047	7
0	4348	7389.384838899191	6
0	4350	7390.601260245645	5
0	4352	7390.864467172762	4
0	4354	7394.493005345528	5
0	4357	7396.230836650018	6
0	4360	7396.563295234601	7
0	4363	7397.139719601437	8
0	4365	7399.536352364769	9
0	4367	7400.921771824812	10
0	4369	7413.023987571255	9
0	4372	7418.819604839042	10
0	4374	7423.841070511221	11
0	4376	7446.224016867825	12
0	4378	7453.952474100639	13
0	4380	7454.292259768806	12
0	4383	7455.844263088249	11
0	4386	7460.269515955814	10
0	4389	7460.666433013812	11
0	4391	7463.427787238071	12
0	4393	7469.210249108303	11
0	4396	7470.842834953921	10
0	4399	7472.16244612465	9
0	4402	7474.103946935619	10
0	4404	7475.010940087392	11
0	4406	7476.0634728242	10
0	4409	7477.492659981345	9
0	4412	7483.71626583567	8
0	4415	7489.731140962311	7
0	4418	7489.916972484079	8
0	4420	7492.14730014206	9
0	4422	7496.596085141377	8
0	4425	7504.617304297204	9
0	4427	7506.501427721591	8
0	4430	7519.743967502314	7
0	4433	7523.12533249396	6
0	4435	7525.961977243765	5
0	4437	7538.511673613976	4
0	4439	7548.857462076757	3
0	4441	7550.419827296035	4
0	4444	7557.383368107403	3
0	4446	7559.970741057444	2
0	4448	7564.697126151792	3
0	4451	7566.166406688184	2
0	4453	7566.770645016651	3
0	4456	7572.509604572903	4
0	4459	7574.570033777519	5
0	4462	7576.388063329568	4
0	4464	7579.026592777802	5
0	4467	7583.118016276988	4
0	4469	7595.318283706568	5
0	4472	7595.761963157581	6
0	4475	7600.122069500334	7
0	4478	7601.557383321044	8
0	4480	7603.858763165013	9
0	4482	7608.240987956214	10
0	4484	7613.629258023158	11
0	4486	7616.330743230867	10
0	4489	7621.459794128908	11
0	4491	7628.383245855958	10
0	4494	7636.178072473189	11
0	4496	7637.623039925071	12
0	4498	7641.309891500507	13
0	4500	7642.277693919527	12
0	4503	7644.794977140978	11
0	4506	7646.409144066167	10
0	4509	7656.069862298438	9
0	4512	7658.184930071386	8
0	4515	7662.373778457975	7
0	4518	7666.340957521391	6
0	4520	7670.146228792726	7
0	4523	7677.316037260248	6
0	4525	7690.785549071081	7
0	4528	7692.258222530759	8
0	4530	7693.432036108165	7
0	4533	7713.106932669804	6
0	4535	7715.440300206868	5
0	4537	7719.975642585573	4
0	4539	7720.087186590812	3
0	4541	7726.243296411954	2
0	4543	7734.166988943552	3
0	4546	7738.980125539587	4
0	4549	7747.888426006227	3
0	4551	7748.072773743927	4
0	4554	7749.777413689455	3
0	4556	7752.676559382548	2
0	4558	7753.317308463361	3
0	4561	7757.421333913259	4
0	4564	7757.502875450915	3
0	4566	7758.073936760229	4
0	4569	7758.785872811566	3
0	4571	7761.958314556562	4
0	4574	7766.808753967882	5
0	4577	7778.800597368314	6
0	4580	7778.950962753315	7
0	4583	7781.235941958083	6
0	4585	7783.139469711025	5
0	4587	7785.215208028568	4
0	4589	7785.989985646344	3
0	4591	7786.780472607368	2
0	4593	7788.332054031197	1
0	4595	7793.425525489866	2
0	4598	7799.617957311481	1
0	4600	7804.63559590141	2
0	4603	7804.700249030462	3
0	4606	7817.106106941323	4
0	4609	7819.586783106978	3
0	4611	7820.626979727613	4
0	4614	7821.078810978622	5
0	4617	7828.046768147114	6
0	4620	7829.953973245872	7
0	4623	7838.200018370177	8
0	4625	7844.088246523992	9
0	4627	7851.333747506454	8
0	4630	7852.115385217867	7
0	4633	7852.986518982296	6
0	4635	7853.016299027548	5
0	4637	7854.348410070244	4
0	4639	7854.800842171691	3
0	4641	7858.194249268295	2
0	4643	7859.419696556514	3
0	4646	7860.872596941563	4
0	4649	7863.376310253966	3
0	4651	7865.951850194353	4
0	4654	7869.761504234701	3
0	4656	7882.758971922535	4
0	4659	7887.696749533573	5
0	4662	7889.13961173357	4
0	4664	7889.57709503917	5
0	4667	7891.401515115545	4
0	4669	7893.501616808932	5
0	4672	7896.652270891131	6
0	4675	7899.776395479048	5
0	4677	7900.575474097102	6
0	4680	7903.148105588529	5
0	4682	7908.614544612971	6
0	4685	7913.683979022837	7
0	4688	7917.695346573878	6
0	4690	7921.301888500621	7
0	4693	7922.523431957724	8
0	4695	7930.38179337499	7
0	4698	7933.758812177832	6
0	4700	7938.20756110504	5
0	4702	7938.227093369944	4
0	4704	7941.881544744634	5
0	4707	7947.620874304897	6
0	4710	7962.47746302746	5
0	4712	7964.643737484802	4
0	4714	7975.754838185983	3
0	4716	7977.370425459514	4
0	4719	7985.777027010023	3
0	4721	7996.744915326043	4
0	4724	7997.118064130784	3
0	4726	7999.496668727058	4
0	4729	8002.14143492054	3
0	4731	8004.188137761542	4
0	4734	8020.854676145081	3
0	4736	8026.509159654756	4
0	4739	8026.665408842973	5
0	4742	8038.366033451911	6
0	4745	8039.987408820833	7
0	4748	8041.855453679741	6
0	4750	8042.775012644571	5
0	4752	8047.544869114422	4
0	4754	8049.699723500084	5
0	4757	8052.040891897507	4
0	4759	8052.924809418317	5
0	4762	8054.128729688291	6
0	4765	8055.679072199584	7
0	4768	8067.343054137916	8
0	4770	8069.50753811304	9
0	4772	8071.089383851187	10
0	4774	8076.830607916147	9
0	4777	8077.421008302437	8
0	4780	8079.282015286858	9
0	4782	8082.623481589177	8
0	4785	8083.904813635544	9
0	4787	8087.595921035378	8
0	4790	8089.214726573168	9
0	4792	8097.974727453218	10
0	4794	8101.728708913099	9
0	4797	8101.90913797014	8
0	4800	8111.716452461473	7
0	4803	8112.291252290615	8
0	4805	8118.123486741626	7
0	4808	8125.696593015677	6
0	4810	8138.766025502385	5
0	4812	8145.024483793894	6
0	4815	8149.844620340756	7
0	4818	8152.905632689488	8
0	4820	8155.043439495323	7
0	4823	8155.374184264079	8
0	4825	8159.500281841402	7
0	4828	8159.70620170501	6
0	4830	8187.936423532736	5
0	4832	8192.378114481491	4
0	4834	8198.854072275576	5
0	4837	8198.889143512444	4
0	4839	8201.947777019494	5
0	4842	8203.264840865361	6
0	4845	8210.301763390352	5
0	4847	8213.033065102093	6
0	4850	8214.31199669153	5
0	4852	8214.462722808009	6
0	4855	8216.930155398829	7
0	4858	8217.6030696382	6
0	4860	8217.604827906696	5
0	4862	8225.659196196752	4
0	4864	8234.5368885004	5
0	4867	8234.630935709595	4
0	4869	8246.843081309238	5
0	4872	8248.768425378057	4
0	4874	8252.312231552254	5
0	4877	8269.211375308074	6
0	4880	8275.817397732178	5
0	4882	8282.314309109482	6
0	4885	8282.531476604421	7
0	4888	8284.667005220352	6
0	4890	8290.332343395734	7
0	4893	8290.553805897399	8
0	4895	8299.877128986805	7
0	4898	8302.179625918636	8
0	4900	8302.262561404221	9
0	4902	8302.702898131534	8
0	4905	8315.454665312555	7
0	4908	8317.883198218768	8
0	4910	8327.942523785562	7
0	4913	8329.38703237477	6
0	4915	8338.877738260664	7
0	4918	8342.335626524006	6
0	4920	8347.248291841984	5
0	4922	8349.940423906648	4
0	4924	8350.509101415002	3
0	4926	8351.400439552839	2
0	4928	8352.277794019916	3
0	4931	8352.650241123978	4
0	4934	8353.449134030246	3
0	4936	8355.788425211506	2
0	4938	8360.89297763436	3
0	4941	8366.93748385467	4
0	4944	8371.272667902974	3
0	4946	8374.557521139328	4
0	4949	8375.146860265406	3
0	4951	8375.541458219773	4
0	4954	8376.084123705258	3
0	4956	8378.874537575202	4
0	4959	8380.801002886932	3
0	4961	8381.824846700501	4
0	4964	8388.496159053501	5
0	4967	8394.724550277977	4
0	4969	8398.793608568381	5
0	4972	8400.997323310676	6
0	4975	8402.804656370328	5
0	4977	8407.518876481391	6
0	4980	8417.740770611229	5
0	4982	8417.998161691657	6
0	4985	8418.562642797734	5
0	4987	8420.607374517638	6
0	4990	8424.745055701518	7
0	4993	8426.100813742336	6
0	4995	8433.937986850147	7
0	4998	8437.87091859403	6
0	5000	8439.766076637493	7
0	5003	8443.399289800135	6
0	5005	8443.874896771381	5
0	5007	8452.785244432935	4
0	5009	8457.64968349465	5
0	5012	8465.953036513572	6
0	5015	8469.727322909683	5
0	5017	8470.27368977928	6
0	5020	8475.41851090001	5
0	5022	8477.020486370153	6
0	5025	8483.965123297416	5
0	5027	8491.044921330781	4
0	5029	8497.747279132669	5
0	5032	8498.477398145043	4
0	5034	8511.158459412108	5
0	5037	8512.808961986859	4
0	5039	8513.963679948653	5
0	5042	8514.622387567887	4
0	5044	8514.743930985093	3
0	5046	8518.220917315512	4
0	5049	8519.25030638846	5
0	5052	8530.620225668225	6
0	5055	8530.802446572023	5
0	5057	8535.459963745938	6
0	5060	8537.022093425205	7
0	5063	8540.603784647482	6
0	5065	8546.940387050506	5
0	5067	8548.742684473806	6
0	5070	8549.192622393385	7
0	5073	8552.769760817757	6
0	5075	8558.065617639872	5
0	5077	8571.458647802361	6
0	5080	8572.741196868818	5
0	5082	8575.60049406096	4
0	5084	8577.481354273791	5
0	5087	8578.191136771291	4
0	5089	8585.298513018357	3
0	5091	8585.554392743525	4
0	5094	8586.057077136618	5
0	5097	8589.574267947349	4
0	5099	8593.559291721891	3
0	5101	8608.892868209731	2
0	5103	8620.137675560954	3
0	5106	8623.449734633473	2
0	5108	8636.227315597376	3
0	5111	8638.048789243552	4
0	5114	8641.754997098451	5
0	5117	8644.491449013901	6
0	5120	8645.829413894548	7
0	5123	8648.856575312781	6
0	5125	8652.39063579553	5
0	5127	8652.820562901958	4
0	5129	8654.647707338723	3
0	5131	8656.682177296095	4
0	5134	8662.167462139855	5
0	5137	8663.253151801107	6
0	5140	8664.660897317823	7
0	5143	8667.903785681366	8
0	5145	8668.40157316875	9
0	5147	8673.668756750046	10
0	5149	8677.120710059571	11
0	5151	8680.001450457765	10
0	5154	8680.569546402436	9
0	5157	8680.8019612816	8
0	5160	8681.773119597201	7
0	5163	8688.88573165198	8
0	5165	8690.427668002113	7
0	5168	8690.467702049456	6
0	5170	8690.80216375953	5
0	5172	8695.582426722152	6
0	5175	8697.008057735332	7
0	5178	8699.778457719967	6
0	5180	8702.063179086945	7
0	5183	8702.218744021682	6
0	5185	8705.769773497977	5
0	5187	8720.876889379635	4
0	5189	8724.621376878648	5
0	5192	8726.63940576591	4
0	5194	8726.942417787137	5
0	5197	8729.269624469193	4
0	5199	8735.782780441204	3
0	5201	8737.948864165896	2
0	5203	8740.445241191076	3
0	5206	8741.765233885697	2
0	5208	8744.969765940401	3
0	5211	8748.562633376078	4
0	5214	8750.560456559388	5
0	5217	8767.002769286201	6
0	5220	8767.548819993472	5
0	5222	8767.615737194173	6
0	5225	8769.507519858866	7
0	5228	8776.711841283756	8
0	5230	8783.942419860631	7
0	5233	8784.147474261507	8
0	5235	8785.643695129527	7
0	5238	8788.711640920476	8
0	5240	8790.700071515393	7
0	5243	8796.784953368267	8
0	5245	8796.916949764823	7
0	5248	8797.573498507136	6
0	5250	8797.780433781653	5
0	5252	8799.984219424364	6
0	5255	8805.329967285746	5
0	5257	8819.889257467183	6
0	5260	8821.673299188661	7
0	5263	8822.967814146319	8
0	5265	8823.267526479574	7
0	5268	8823.742922699953	6
0	5270	8824.110486799112	7
0	5273	8828.496443364496	8
0	5275	8836.808495833043	7
0	5278	8839.3186153372	6
0	5280	8843.682675875995	7
0	5283	8853.200107829362	8
0	5285	8854.516383702475	9
0	5287	8857.672979751012	10
0	5289	8859.395218857141	9
0	5292	8870.4389099093	8
0	5295	8871.442262239272	7
0	5298	8874.171933403482	6
0	5300	8876.331064849817	7
0	5303	8876.580426332532	8
0	5305	8879.464328449117	7
0	5308	8883.431487533178	8
0	5310	8888.182690593212	7
0	5313	8889.75357205446	6
0	5315	8892.113538942286	7
0	5318	8894.898412010492	8
0	5320	8895.472327626831	9
0	5322	8899.233049840798	8
0	5325	8903.293711854938	7
0	5328	8906.325008600785	6
0	5330	8906.543219306889	7
0	5333	8907.492535428954	6
0	5335	8908.502147625436	7
0	5338	8913.714371164166	6
0	5340	8916.945703925325	7
0	5343	8924.039974421814	8
0	5345	8932.288978096507	7
0	5348	8933.239653716313	8
0	5350	8934.072755922976	9
0	5352	8938.817154268362	8
0	5355	8942.318838622288	7
0	5358	8954.095269805393	8
0	5360	8954.233797833654	7
0	5363	8958.402528733599	6
0	5365	8965.875349559472	5
0	5367	8969.739026288912	6
0	5370	8970.82983276357	7
0	5373	8973.703342634523	6
0	5375	8980.957540640929	5
0	5377	8982.690054564048	6
0	5380	8987.345470580837	5
0	5382	8994.540279600543	4
0	5384	8994.825136178705	3
0	5386	9001.411213930913	4
0	5389	9006.379163446353	3
0	5391	9006.645631064234	4
0	5394	9009.028902536712	5
0	5397	9009.573354278386	6
0	5400	9013.026063446418	7
0	5403	9017.315598957981	6
0	5405	9019.987295761908	7
0	5408	9021.736811229906	6
0	5410	9022.665251975696	7
0	5413	9024.533686599116	8
0	5415	9026.852859131007	9
0	5417	9028.474218371412	8
0	5420	9031.177236196597	9
0	5422	9033.212330760248	10
0	5424	9039.534243438377	9
0	5427	9051.09753338177	8
0	5430	9054.255670830126	7
0	5433	9055.556009766856	8
0	5435	9056.32797130847	7
0	5438	9061.087956966866	8
0	5440	9061.563816256078	7
0	5443	9063.077871047291	8
0	5445	9069.172914699506	9
0	5447	9069.344991360364	10
0	5449	9071.108910239511	11
0	5451	9071.157522997037	12
0	5453	9076.320675203723	11
0	5456	9081.122089630877	10
0	5459	9083.514642672596	9
0	5462	9087.167455372021	10
0	5464	9091.743238464195	9
0	5467	9095.789298616487	8
0	5470	9096.132061376883	9
0	5472	9096.49149136837	8
0	5475	9099.953862782057	7
0	5478	9102.589036850062	6
0	5480	9109.102047283783	5
0	5482	9114.690673391724	6
0	5485	9117.195715526045	5
0	5487	9125.897256517833	6
0	5490	9129.581793711843	7
0	5493	9131.497610418921	6
0	5495	9136.489435752566	7
0	5498	9138.129222980694	8
0	5500	9141.143929689716	9
0	5502	9143.714093669774	10
0	5504	9143.805673211048	9
0	5507	9146.354266022959	8
0	5510	9148.911767996136	7
0	5513	9149.299184222354	6
0	5515	9150.831783904523	5
0	5517	9170.366770036704	6
0	5520	9176.66651954344	7
0	5523	9178.328264580943	6
0	5525	9178.421419909746	5
0	5527	9186.406221731706	4
0	5529	9194.953104360992	5
0	5532	9195.457192865836	6
0	5535	9196.373975395842	5
0	5537	9206.135880918229	6
0	5540	9214.069657365819	7
0	5543	9215.883475979503	6
0	5545	9221.624879425209	5
0	5547	9221.901774108944	4
0	5549	9222.930618713035	5
0	5552	9223.28003084733	6
0	5555	9230.499263205442	7
0	5558	9232.376791749244	6
0	5560	9233.831016656301	5
0	5562	9237.448667922986	4
0	5564	9239.107135001973	5
0	5567	9239.773068483874	4
0	5569	9242.546699373735	3
0	5571	9242.97484874113	4
0	5574	9245.306822758577	5
0	5577	9250.23831457179	4
0	5579	9251.181231983362	5
0	5582	9251.52929894816	6
0	5585	9259.939802332187	5
0	5587	9266.137717544816	6
0	5590	9274.366753430072	5
0	5592	9274.789619711467	4
0	5594	9275.175664250554	3
0	5596	9279.343262700052	4
0	5599	9280.309996039108	5
0	5602	9281.755423117841	4
0	5604	9287.511460548413	5
0	5607	9291.274565108561	6
0	5610	9303.980699256572	7
0	5613	9303.99267715587	6
0	5615	9310.65831090958	7
0	5618	9316.742979420515	8
0	5620	9320.298546945199	9
0	5622	9321.839889900178	8
0	5625	9323.046879478191	7
0	5628	9325.258041057227	8
0	5630	9327.988977416717	7
0	5633	9329.980703880727	6
0	5635	9330.337574202874	5
0	5637	9330.480281602209	4
0	5639	9330.755428424209	5
0	5642	9333.168804890591	6
0	5645	9337.689670084873	7
0	5648	9339.289949984915	6
0	5650	9340.772391713943	5
0	5652	9348.086380532684	6
0	5655	9353.999066837059	7
0	5658	9355.492337388413	8
0	5660	9358.698802385086	7
0	5663	9366.088472549157	6
0	5665	9370.996740061732	5
0	5667	9378.13662148256	6
0	5670	9379.492982106036	7
0	5673	9383.633065367391	6
0	5675	9384.092747081897	5
0	5677	9384.190744701333	6
0	5680	9384.662589984552	7
0	5683	9400.899156138194	6
0	5685	9405.39228191823	7
0	5688	9406.082409135592	6
0	5690	9406.133957124181	7
0	5693	9406.592285796697	6
0	5695	9408.550550997046	5
0	5697	9408.608110463406	6
0	5700	9412.381656861522	5
0	5702	9415.147397940424	4
0	5704	9417.013172792936	3
0	5706	9418.889957065445	4
0	5709	9420.725357059982	5
0	5712	9423.997089719308	6
0	5715	9428.292534707896	7
0	5718	9428.840383493242	8
0	5720	9430.302920079662	9
0	5722	9432.887253663084	10
0	5724	9433.24887373881	9
0	5727	9434.912584174561	8
0	5730	9443.396745773452	9
0	5732	9447.468532586417	10
0	5734	9450.244281421105	11
0	5736	9451.242634818181	10
0	5739	9455.059173214602	11
0	5741	9458.452488666893	12
0	5743	9466.023675084691	11
0	5746	9467.915112470822	10
0	5749	9468.59353401191	11
0	5751	9475.549434116245	10
0	5754	9476.893510920986	9
0	5757	9484.61481858749	8
0	5760	9497.312180100192	7
0	5763	9497.939322317232	6
0	5765	9499.575159483983	5
0	5767	9503.883214800484	4
0	5769	9505.374849187904	5
0	5772	9506.723454047453	4
0	5774	9509.485432519487	3
0	5776	9510.883269141602	2
0	5778	9514.720068131594	3
0	5781	9519.603784666533	4
0	5784	9525.14091201011	3
0	5786	9548.739154035106	4
0	5789	9550.165113243761	5
0	5792	9550.610062650867	6
0	5795	9562.188796091479	7
0	5798	9564.148730055309	6
0	5800	9570.269294396118	5
0	5802	9574.078139180719	4
0	5804	9582.258972915727	3
0	5806	9584.231900695798	2
0	5808	9588.952039504057	3
0	5811	9606.851748104704	4
0	5814	9608.430923137966	5
0	5817	9609.757220053259	4
0	5819	9611.570844396452	5
0	5822	9616.137908346536	4
0	5824	9623.221751028798	5
0	5827	9630.84401115923	6
0	5830	9633.217074101461	7
0	5833	9636.209205726345	6
0	5835	9636.320666474875	7
0	5838	9642.654680142096	8
0	5840	9643.226769335195	7
0	5843	9645.415642657804	8
0	5845	9652.92908324706	9
0	5847	9657.916614335471	10
0	5849	9659.758335460017	11
0	5851	9661.742889049236	10
0	5854	9662.442314644137	9
0	5857	9663.825454256232	8
0	5860	9670.771798334115	7
0	5863	9674.322434515641	6
0	5865	9677.136903508891	5
0	5867	9678.286996760109	6
0	5870	9679.724456742879	5
0	5872	9680.621345729729	4
0	5874	9690.195242260798	5
0	5877	9694.418756931149	4
0	5879	9698.088699094419	3
0	5881	9701.831249921353	2
0	5883	9702.357309046227	1
0	5885	9706.751249701163	2
0	5888	9707.814644722096	1
0	5890	9713.776203459285	2
0	5893	9717.00925081768	3
0	5896	9717.308082161472	4
0	5899	9717.452639104037	3
0	5901	9719.629292124013	4
0	5904	9721.865716910953	5
0	5907	9725.640160921973	4
0	5909	9728.316292467917	5
0	5912	9734.89174619133	6
0	5915	9737.904342744356	5
0	5917	9743.346855403334	4
0	5919	9762.930153732338	3
0	5921	9764.253764657303	4
0	5924	9772.637114631346	3
0	5926	9774.057989155335	2
0	5928	9786.573659034174	1
0	5930	9790.424617261843	2
0	5933	9791.13798792532	1
0	5935	9794.114269674445	2
0	5938	9798.353014488634	3
0	5941	9798.442661181588	2
0	5943	9805.351882038412	3
0	5946	9806.744668095731	4
0	5949	9817.466044013128	5
0	5952	9819.870838251151	6
0	5955	9832.72680816645	7
0	5958	9843.766981110281	6
0	5960	9850.667108686815	7
0	5963	9867.16661372494	8
0	5965	9870.856371470691	9
0	5967	9872.381077678271	8
0	5970	9874.096152368815	9
0	5972	9874.631929984882	8
0	5975	9875.786329189742	9
0	5977	9876.513248154908	8
0	5980	9879.733119043348	9
0	5982	9880.546702146992	10
0	5984	9885.436410630348	9
0	5987	9887.157297342181	8
0	5990	9889.987711436821	9
0	5992	9894.622011323643	10
0	5994	9896.077581502803	9
0	5997	9898.164542595978	10
0	5999	9902.133283768898	9
0	6002	9905.839991765812	8
0	6005	9906.459502650793	9
0	6007	9907.02797817411	10
0	6009	9907.070828670164	9
0	6012	9911.754838857564	10
0	6014	9914.131950954838	11
0	6016	9916.102557690144	10
0	6019	9918.299618252085	9
0	6022	9922.118711539664	10
0	6024	9927.511499471354	11
0	6026	9927.788796412096	10
0	6029	9931.096323232377	11
0	6031	9935.00472291282	10
0	6034	9935.549762899732	11
0	6036	9942.255205450056	10
0	6039	9943.474686869537	9
0	6042	9944.348944892747	8
0	6045	9953.934294684223	7
0	6048	9955.064382977767	6
0	6050	9957.409054760472	5
0	6052	9959.412529535833	4
0	6054	9962.338173919791	5
0	6057	9963.578375365255	4
0	6059	9964.101021699486	5
0	6062	9967.43262724821	4
0	6064	9969.793576889469	3
0	6066	9974.994887188882	2
0	6068	9984.537048211788	3
0	6071	9988.474083361793	4
0	6074	9991.974513878716	3
0	6076	9995.569068617907	4
0	6079	9997.716613221668	3
0	6081	10003.889308983758	2
0	6083	10006.034621046523	3
0	6086	10016.061485820674	2
0	6088	10021.445082263892	3
0	6091	10024.316636279565	2
0	6093	10026.498920424587	1
0	6095	10047.314874806195	2
0	6098	10060.435153028312	1
0	6100	10067.019305889284	2
0	6103	10075.542332913529	1
0	6105	10077.389704447605	2
0	6108	10084.833012260763	1
0	6110	10090.244557461001	2
0	6113	10092.11647400454	3
0	6116	10097.309980905739	2
0	6118	10098.781791083659	3
0	6121	10100.722478073819	4
0	6124	10102.421509487428	5
0	6127	10107.053314375939	6
0	6130	10110.942999131479	5
0	6132	10114.528410945561	6
0	6135	10117.546621642691	7
0	6138	10117.814942295143	8
0	6140	10118.418792562327	9
0	6142	10118.815874264295	8
0	6145	10123.426452957976	7
0	6148	10125.477063030346	8
0	6150	10126.93278401684	7
0	6153	10131.587728710012	6
0	6155	10131.992303378494	7
0	6158	10141.017538751056	6
0	6160	10143.704247082045	5
0	6162	10146.557942804226	6
0	6165	10147.006094243449	7
0	6168	10147.269931938748	8
0	6170	10149.204632146269	7
0	6173	10152.144123188512	6
0	6175	10155.810356055625	7
0	6178	10156.111419082148	6
0	6180	10163.160127819063	5
0	6182	10163.45050736987	4
0	6184	10170.643709568946	5
0	6187	10170.660993251389	6
0	6190	10175.836212336251	7
0	6193	10180.147527195554	6
0	6195	10183.842901950053	7
0	6198	10183.882923364337	6
0	6200	10184.218053048704	7
0	6203	10184.325643483337	6
0	6205	10186.970713303279	5
0	6207	10196.289604989083	4
0	6209	10198.086745036447	5
0	6212	10198.937158024196	4
0	6214	10204.684801376768	3
0	6216	10205.513541147261	4
0	6219	10210.100211424937	5
0	6222	10215.038651574873	6
0	6225	10215.445984777234	5
0	6227	10217.74387567178	4
0	6229	10218.702542316349	3
0	6231	10219.070749909566	4
0	6234	10225.751002028624	5
0	6237	10231.854540164737	4
0	6239	10232.357658405407	3
0	6241	10232.503033820302	2
0	6243	10239.33632902952	1
0	6245	10239.526836732166	2
0	6248	10245.680559147697	1
0	6250	10246.25689946359	2
0	6253	10247.93414836406	3
0	6256	10255.152723260608	4
0	6259	10262.500799901966	5
0	6262	10265.574130547509	4
0	6264	10268.215335965109	5
0	6267	10268.580089528387	4
0	6269	10274.063920860706	3
0	6271	10274.699728310563	2
0	6273	10284.02197139419	3
0	6276	10284.463327202666	4
0	6279	10285.044536836472	5
0	6282	10288.562929456237	4
0	6284	10292.649900352214	3
0	6286	10296.316870410836	4
0	6289	10308.779335655807	5
0	6292	10314.300073725763	4
0	6294	10319.260828347566	5
0	6297	10324.593817872723	4
0	6299	10331.782657380091	3
0	6301	10333.947036528183	4
0	6304	10338.778718440064	5
0	6307	10338.921646497779	4
0	6309	10341.923949875292	3
0	6311	10342.333700587863	4
0	6314	10351.497440811162	5
0	6317	10355.698108632369	6
0	6320	10358.821727524865	7
0	6323	10365.733310173541	6
0	6325	10366.69792499529	7
0	6328	10367.241092000062	6
0	6330	10370.707499111916	5
0	6332	10372.248687638001	6
0	6335	10374.571295615007	5
0	6337	10375.491379464856	4
0	6339	10380.403514376018	5
0	6342	10382.178082071045	6
0	6345	10382.59424443602	7
0	6348	10382.800776478747	6
0	6350	10384.659843447488	7
0	6353	10385.736617068358	6
0	6355	10391.876242499163	5
0	6357	10398.259077786573	4
0	6359	10409.371382991866	3
0	6361	10412.623017447148	2
0	6363	10413.609217990018	1
0	6365	10416.889203115615	2
0	6368	10418.806655227044	3
0	6371	10425.766098498425	4
0	6374	10428.119918853951	3
0	6376	10428.917510452728	4
0	6379	10436.127758946357	3
0	6381	10458.662002841295	4
0	6384	10460.041441171573	5
0	6387	10472.061879485836	6
0	6390	10473.090894032748	7
0	6393	10475.248462641863	6
0	6395	10478.743661005542	7
0	6398	10484.451991098894	6
0	6400	10485.595319588123	7
0	6403	10486.685245434796	6
0	6405	10489.580356510871	5
0	6407	10491.831525002914	4
0	6409	10497.883965695074	3
0	6411	10502.72505199177	4
0	6414	10511.128812165305	5
0	6417	10519.12245556284	4
0	6419	10521.808514264888	5
0	6422	10525.245264797992	6
0	6425	10526.120268262153	5
0	6427	10528.058481903098	6
0	6430	10529.031890607354	7
0	6433	10530.734580537991	6
0	6435	10531.942922439133	5
0	6437	10536.387658734423	4
0	6439	10547.913705905789	5
0	6442	10548.173322202189	4
0	6444	10557.19303346823	3
0	6446	10557.377964013405	2
0	6448	10564.155528743833	1
0	6450	10568.118547958342	2
0	6453	10576.129694690953	3
0	6456	10577.410371882564	4
0	6459	10582.137920522301	5
0	6462	10585.533397668791	4
0	6464	10590.783184635771	3
0	6466	10593.947005979985	4
0	6469	10597.332755487044	5
0	6472	10600.224045858188	6
0	6475	10601.112182476358	5
0	6477	10605.22522012279	6
0	6480	10607.408375638076	7
0	6483	10607.822156452692	6
0	6485	10613.996554886342	7
0	6488	10614.677814556424	6
0	6490	10621.620195513501	5
0	6492	10621.999765072608	6
0	6495	10627.53380634505	7
0	6498	10628.637159742259	8
0	6500	10631.240140763377	9
0	6502	10637.439701452472	10
0	6504	10640.256432296955	11
0	6506	10644.993613564632	12
0	6508	10645.381197907349	11
0	6511	10649.16588604031	10
0	6514	10653.410073974994	11
0	6516	10658.787364804549	10
0	6519	10666.457296392065	11
0	6521	10677.843380904966	12
0	6523	10678.469994498743	11
0	6526	10683.704168287513	10
0	6529	10689.393725886827	9
0	6532	10692.419106004575	10
0	6534	10693.153978298325	11
0	6536	10693.988346447991	10
0	6539	10697.00575288647	11
0	6541	10698.43616330865	10
0	6544	10699.940872556479	11
0	6546	10701.430047755586	10
0	6549	10705.173988159594	11
0	6551	10705.761807019779	10
0	6554	10712.573804502717	9
0	6557	10713.763863056887	8
0	6560	10724.748160503836	7
0	6563	10737.268562315391	8
0	6565	10746.150590983055	9
0	6567	10768.309218657284	10
0	6569	10776.740841291254	9
0	6572	10780.632448107694	10
0	6574	10782.362256624098	9
0	6577	10784.028661096681	8
0	6580	10785.364219632777	7
0	6583	10786.250884706439	8
0	6585	10790.061663591806	7
0	6588	10790.148419340182	8
0	6590	10791.108813894216	7
0	6593	10792.581323920459	6
0	6595	10794.608385648781	5
0	6597	10795.638444736189	4
0	6599	10808.116311904229	3
0	6601	10814.809360697813	2
0	6603	10819.142995700389	1
0	6605	10829.742529309437	2
0	6608	10853.084897662416	3
0	6611	10867.607126159651	2
0	6613	10881.309607384119	1
0	6615	10891.882594049511	0
0	6617	10897.638354939151	1
0	6620	10904.600362650624	2
0	6623	10910.650772078144	3
0	6626	10916.24578206858	4
0	6629	10925.365516497834	5
0	6632	10926.990458662051	4
0	6634	10927.255292530636	3
0	6636	10938.616522157594	4
0	6639	10949.506174348891	5
0	6642	10951.093145590814	4
0	6644	10954.426511345796	3
0	6646	10960.961907062023	2
0	6648	10966.133352016487	3
0	6651	10971.565307774115	4
0	6654	10981.148568905558	5
0	6657	10984.881345692696	4
0	6659	10985.218963318831	5
0	6662	11000.095252871278	6
0	6665	11001.060454859988	5
0	6667	11012.77260993035	6
0	6670	11013.115606319518	5
0	6672	11019.631674528311	4
0	6674	11020.473091776217	5
0	6677	11046.219955753514	6
0	6680	11048.428152028442	5
0	6682	11052.430027353244	6
0	6685	11059.145273238433	5
0	6687	11059.83316621281	6
0	6690	11063.159499365337	7
0	6693	11063.550692312136	8
0	6695	11063.630747061142	7
0	6698	11067.879744335602	8
0	6700	11068.809823747899	9
0	6702	11072.029808263007	10
0	6704	11080.001679418404	11
0	6706	11082.062112543795	12
0	6708	11091.835251777774	13
0	6710	11094.35177193448	12
0	6713	11096.319405834251	11
0	6716	11096.368374124957	10
0	6719	11104.581190541514	9
0	6722	11105.23238636648	8
0	6725	11105.618609783476	7
0	6728	11106.493854309245	8
0	6730	11114.218075937241	7
0	6733	11120.148032721093	6
0	6735	11128.333487976338	5
0	6737	11130.822677231497	6
0	6740	11131.071640088235	7
0	6743	11135.028788924807	8
0	6745	11138.210675335224	9
0	6747	11142.153683634734	10
0	6749	11146.669148938439	9
0	6752	11162.013095929483	10
0	6754	11163.011836767178	11
0	6756	11163.605030104131	12
0	6758	11165.956080748912	11
0	6761	11167.662900185283	10
0	6764	11168.114515194287	11
0	6766	11169.639064555511	10
0	6769	11174.358000540701	11
0	6771	11185.948672464557	10
0	6774	11188.201375882682	9
0	6777	11191.940703475781	10
0	6779	11194.102792445196	11
0	6781	11195.823983300929	10
0	6784	11204.807828269573	9
0	6787	11205.19477684046	8
0	6790	11205.243055152232	7
0	6793	11206.669750551485	6
0	6795	11208.084377980986	7
0	6798	11214.311521921821	8
0	6800	11214.910426944074	7
0	6803	11218.749859116899	6
0	6805	11222.387182522376	7
0	6808	11224.026838579512	8
0	6810	11229.882142979035	7
0	6813	11232.484411291556	6
0	6815	11233.826986135517	7
0	6818	11238.870821551802	6
0	6820	11243.882906415572	7
0	6823	11244.009338183419	6
0	6825	11248.43101574006	7
0	6828	11257.387468240579	8
0	6830	11262.014629318331	9
0	6832	11272.928453749188	8
0	6835	11273.549222459592	9
0	6837	11274.969117012905	8
0	6840	11277.057564635928	9
0	6842	11277.258153747539	10
0	6844	11283.663233101563	9
0	6847	11286.773912598697	10
0	6849	11289.42259594517	11
0	6851	11295.00422994428	10
0	6854	11299.199082692648	11
0	6856	11301.904479049884	10
0	6859	11302.536414579451	9
0	6862	11303.757847958404	10
0	6864	11306.649315807418	11
0	6866	11310.879442340109	10
0	6869	11311.055591356982	11
0	6871	11315.384584284349	12
0	6873	11319.260851544749	13
0	6875	11323.003175474371	12
0	6878	11325.752397223744	11
0	6881	11328.134552368386	12
0	6883	11330.072983605641	11
0	6886	11331.914497443567	10
0	6889	11333.409036998444	9
0	6892	11334.678581272257	10
0	6894	11336.106596171257	9
0	6897	11340.48198934995	8
0	6900	11343.434889478307	7
0	6903	11351.497818649453	6
0	6905	11353.387673666375	7
0	6908	11354.590013906003	6
0	6910	11356.062904867035	5
0	6912	11358.840099243927	4
0	6914	11359.059318776712	5
0	6917	11360.435262653495	4
0	6919	11365.830011456054	3
0	6921	11366.386706859631	4
0	6924	11368.641094643862	5
0	6927	11369.504512566184	6
0	6930	11376.917708770028	7
0	6933	11377.64843538439	6
0	6935	11379.092598441188	5
0	6937	11379.30841951324	6
0	6940	11383.189650603105	7
0	6943	11387.002039253846	6
0	6945	11391.985667008295	7
0	6948	11401.992713949295	8
0	6950	11402.485164689079	7
0	6953	11405.86056995903	6
0	6955	11408.599491106208	7
0	6958	11409.474692449261	6
0	6960	11410.228603675476	7
0	6963	11412.270796232702	8
0	6965	11415.168407931967	9
0	6967	11425.508040012998	8
0	6970	11427.759896181023	9
0	6972	11435.756771032706	8
0	6975	11442.812909682777	9
0	6977	11443.553053368303	10
0	6979	11445.719335497327	9
0	6982	11447.688397359427	8
0	6985	11454.169019265245	9
0	6987	11454.631072378422	8
0	6990	11460.883686929677	7
0	6993	11471.962512595082	8
0	6995	11480.82368516087	7
0	6998	11483.1715704815	6
0	7000	11483.730168793634	7
0	7003	11496.493467576274	6
0	7005	11506.269842318496	7
0	7008	11507.208204410517	6
0	7010	11512.332753031217	7
0	7013	11519.301677181529	8
0	7015	11522.933331436044	7
0	7018	11527.271008541194	8
0	7020	11533.177776795407	9
0	7022	11534.194105856049	8
0	7025	11536.860256470844	7
0	7028	11537.950570441442	6
0	7030	11541.521807776041	7
0	7033	11550.853142509359	6
0	7035	11552.820954192234	7
0	7038	11556.526611057091	8
0	7040	11559.817233157876	7
0	7043	11560.985732387697	8
0	7045	11567.095470146721	9
0	7047	11573.969098207264	8
0	7050	11576.971304845537	7
0	7053	11580.911001003376	8
0	7055	11584.377526788881	7
0	7058	11586.540472132457	8
0	7060	11593.161463963371	7
0	7063	11595.885771891687	6
0	7065	11600.339331406534	5
0	7067	11600.634167380799	6
0	7070	11602.415724232802	5
0	7072	11603.783935007738	6
0	7075	11604.090823267194	5
0	7077	11616.885920785618	6
0	7080	11617.329231032595	5
0	7082	11620.068297180138	4
0	7084	11632.782363148933	3
0	7086	11638.921612267724	4
0	7089	11644.036787426607	3
0	7091	11648.836960081719	4
0	7094	11651.800640649119	3
0	7096	11659.155041792781	4
0	7099	11659.309316178623	5
0	7102	11659.977473379049	4
0	7104	11666.162747582426	3
0	7106	11675.313286295333	4
0	7109	11678.192142460288	3
0	7111	11679.212521900519	2
0	7113	11684.089030943135	3
0	7116	11690.978720854459	4
0	7119	11692.522829306119	3
0	7121	11699.805266492891	4
0	7124	11701.843447768566	5
0	7127	11702.288057042822	6
0	7130	11703.596933597333	5
0	7132	11705.124150658698	4
0	7134	11719.653870840508	3
0	7136	11720.262432110423	4
0	7139	11720.443962013324	3
0	7141	11722.612578496743	4
0	7144	11723.931161437981	3
0	7146	11727.455822777012	2
0	7148	11728.669836552188	1
0	7150	11742.398469708184	2
0	7153	11743.941925456921	1
0	7155	11748.247212426511	2
0	7158	11749.549075903342	3
0	7161	11755.937232676342	4
0	7164	11760.792726292431	5
0	7167	11765.978956706043	4
0	7169	11771.816133399985	5
0	7172	11773.020560925538	6
0	7175	11780.900025500382	7
0	7178	11787.588397869959	8
0	7180	11788.774374770733	7
0	7183	11789.333814862392	8
0	7185	11790.487658443573	7
0	7188	11794.234272469252	8
0	7190	11795.90347050226	7
0	7193	11809.048573971764	8
0	7195	11809.145228229354	9
0	7197	11819.27664802507	8
0	7200	11821.431728991793	7
0	7203	11822.471765076707	6
0	7205	11831.301133464003	7
0	7208	11832.286333676648	6
0	7210	11836.364604930919	7
0	7213	11840.353367166895	8
0	7215	11840.535869704999	9
0	7217	11843.192739499504	10
0	7219	11853.195577291481	11
0	7221	11856.196107032201	10
0	7224	11858.850618304141	9
0	7227	11859.366580458322	8
0	7230	11863.678877376892	7
0	7233	11865.603427287343	6
0	7235	11866.421100236433	5
0	7237	11867.492929897903	4
0	7239	11871.296801945832	5
0	7242	11872.06489687352	6
0	7245	11875.728975969092	5
0	7247	11876.388253014026	4
0	7249	11876.953918809287	5
0	7252	11877.621581611655	6
0	7255	11882.155498810428	5
0	7257	11883.70653150951	4
0	7259	11884.272805302479	5
0	7262	11886.393446677738	4
0	7264	11887.400251052581	3
0	7266	11888.629702441977	2
0	7268	11897.04529215665	3
0	7271	11897.188246203399	2
0	7273	11913.664855785515	1
0	7275	11914.674118664092	2
0	7278	11915.810142182604	3
0	7281	11917.247577444653	4
0	7284	11921.247269711022	3
0	7286	11924.922477002469	4
0	7289	11937.258120304436	3
0	7291	11938.879133374842	2
0	7293	11939.718841118958	1
0	7295	11940.30183399089	2
0	7298	11941.50576180207	3
0	7301	11949.063160459645	4
0	7304	11952.325143266567	3
0	7306	11960.442367287614	4
0	7309	11964.085214905868	3
0	7311	11974.450329280196	4
0	7314	11977.889117668974	3
0	7316	11985.798131210612	4
0	7319	11985.865088922142	3
0	7321	11989.757974906968	4
0	7324	11990.010833186953	5
0	7327	12017.674905412269	4
0	7329	12019.078433090901	5
0	7332	12023.558633648191	4
0	7334	12029.975342018228	5
0	7337	12037.558015182658	4
0	7339	12047.039007848316	5
0	7342	12053.279487669763	6
0	7345	12056.180055345969	5
0	7347	12057.214124300688	6
0	7350	12067.112238640207	5
0	7352	12068.604872304366	4
0	7354	12069.235986828003	5
0	7357	12071.393817719785	4
0	7359	12073.848897626551	3
0	7361	12088.817132888571	4
0	7364	12091.154492957117	3
0	7366	12096.260376560227	4
0	7369	12097.640212921928	5
0	7372	12102.844561490838	4
0	7374	12109.183887548341	5
0	7377	12109.207058710454	4
0	7379	12111.479041472811	3
0	7381	12112.081697551845	4
0	7384	12112.163005375569	5
0	7387	12134.426339759656	6
0	7390	12139.066382523092	5
0	7392	12139.666710197978	6
0	7395	12146.627600706567	7
0	7398	12146.997471452425	6
0	7400	12147.758680883586	5
0	7402	12160.944120113244	6
0	7405	12162.901582321759	7
0	7408	12164.753551680406	6
0	7410	12181.555573091688	7
0	7413	12183.363630027529	6
0	7415	12184.066538579982	7
0	7418	12187.270783094367	6
0	7420	12190.397816458698	5
0	7422	12192.810411581822	4
0	7424	12198.18693750596	5
0	7427	12201.906397997213	4
0	7429	12204.013538144735	3
0	7431	12207.385942275502	4
0	7434	12214.845189429598	5
0	7437	12217.1150858902	4
0	7439	12242.629687945639	3
0	7441	12246.194553300483	2
0	7443	12277.115560139336	1
0	7445	12278.250943295666	2
0	7448	12284.147447414436	3
0	7451	12286.408385407169	4
0	7454	12286.675726930869	3
0	7456	12290.946868996695	4
0	7459	12293.150638371665	3
0	7461	12296.203513880656	2
0	7463	12296.79706877201	3
0	7466	12301.139842799119	2
0	7468	12306.809933068125	3
0	7471	12310.471253209811	4
0	7474	12313.300759148561	5
0	7477	12320.811312327748	4
0	7479	12332.432824472702	3
0	7481	12337.588982813527	4
0	7484	12342.387898865026	5
0	7487	12345.1217169923	6
0	7490	12347.030598386605	7
0	7493	12347.519090549855	6
0	7495	12348.256168595465	7
0	7498	12357.949990635316	6
0	7500	12363.85226189719	7
0	7503	12365.945318670457	6
0	7505	12374.728334055306	5
0	7507	12375.31462470012	4
0	7509	12383.209563487799	3
0	7511	12383.559411839528	4
0	7514	12387.683944439166	3
0	7516	12398.427047364281	2
0	7518	12398.91424251032	3
0	7521	12411.155684318407	4
0	7524	12413.327185590798	5
0	7527	12421.010805326038	6
0	7530	12425.454704812467	7
0	7533	12427.449439239367	6
0	7535	12428.394430557592	7
0	7538	12429.762359234938	6
0	7540	12432.226784109646	5
0	7542	12433.367458812046	4
0	7544	12434.017366529244	5
0	7547	12435.741628603453	6
0	7550	12436.419723483329	7
0	7553	12438.142004809997	6
0	7555	12443.246010449221	7
0	7558	12447.858501830564	6
0	7560	12450.942319235486	5
0	7562	12450.955928724279	6
0	7565	12452.990402401327	7
0	7568	12453.077055844832	6
0	7570	12456.265968766225	7
0	7573	12456.894826980005	8
0	7575	12460.888426758507	7
0	7578	12465.073209601871	8
0	7580	12468.357918565768	9
0	7582	12469.425181605336	8
0	7585	12469.881188132974	7
0	7588	12476.255414961637	6
0	7590	12479.434926996295	5
0	7592	12481.606507370115	6
0	7595	12484.502288546652	7
0	7598	12484.665062433176	8
0	7600	12490.342603576598	9
0	7602	12496.034050399829	10
0	7604	12501.051116429916	9
0	7607	12504.058419021361	8
0	7610	12512.255131438962	7
0	7613	12512.795397793241	8
0	7615	12515.661017539493	9
0	7617	12518.067267538987	8
0	7620	12518.586087320624	7
0	7623	12527.209972895856	8
0	7625	12532.168466392428	7
0	7628	12532.7398757775	6
0	7630	12539.213956033165	7
0	7633	12545.547780569507	6
0	7635	12547.863494678416	7
0	7638	12548.212185666865	8
0	7640	12553.079222127415	7
0	7643	12555.677671248879	8
0	7645	12558.701507001671	7
0	7648	12560.067904435695	6
0	7650	12563.794408968905	5
0	7652	12565.336387379073	4
0	7654	12565.342038765223	3
0	7656	12570.198138555055	4
0	7659	12571.237155501461	5
0	7662	12575.26053173052	4
0	7664	12578.320803511785	5
0	7667	12597.099731977157	4
0	7669	12602.236700692733	3
0	7671	12612.63865137721	4
0	7674	12618.797922760334	3
0	7676	12619.036875240441	4
0	7679	12620.84550603105	5
0	7682	12637.325309010538	6
0	7685	12641.5664739479	5
0	7687	12648.869261586559	6
0	7690	12650.044241003854	5
0	7692	12663.594397553447	4
0	7694	12676.366786463995	5
0	7697	12676.957858735852	4
0	7699	12679.824195496154	5
0	7702	12682.14498309022	4
0	7704	12682.923692991358	3
0	7706	12683.418741942902	2
0	7708	12685.242033449249	3
0	7711	12686.981909838603	2
0	7713	12692.096423210484	1
0	7715	12726.610853916621	2
0	7718	12726.626086914553	1
0	7720	12745.545051613914	2
0	7723	12757.768704871474	3
0	7726	12758.46610442523	2
0	7728	12758.860306120112	3
0	7731	12762.844826718806	4
0	7734	12767.539211382348	5
0	7737	12769.811567577827	4
0	7739	12770.208633529336	3
0	7741	12773.820192754944	4
0	7744	12776.423475805462	3
0	7746	12781.232393059597	2
0	7748	12801.985489494182	3
0	7751	12805.343099199104	4
0	7754	12806.631881408447	5
0	7757	12808.172552895227	6
0	7760	12809.174999228326	7
0	7763	12823.9031669653	6
0	7765	12825.770504067588	7
0	7768	12826.412689057631	6
0	7770	12826.761633120081	5
0	7772	12827.355392649601	6
0	7775	12829.899229222444	5
0	7777	12830.336942403098	4
0	7779	12831.893366495946	5
0	7782	12832.695128188904	4
0	7784	12834.781770210994	5
0	7787	12839.558501795237	6
0	7790	12842.342856647598	5
0	7792	12852.600985351571	4
0	7794	12852.919986387696	5
0	7797	12859.702948742009	6
0	7800	12859.726101676012	7
0	7803	12866.076179658363	8
0	7805	12867.887622427069	7
0	7808	12874.233989552163	6
0	7810	12878.379886076502	5
0	7812	12882.728057833966	6
0	7815	12898.150108268134	7
0	7818	12898.781930426812	8
0	7820	12899.931468477206	7
0	7823	12904.28106336802	6
0	7825	12908.371394679346	7
0	7828	12908.3932989012	8
0	7830	12911.798724232117	9
0	7832	12912.325961080569	10
0	7834	12913.839273173546	11
0	7836	12914.197382224462	10
0	7839	12916.667215292693	11
0	7841	12920.258347542751	12
0	7843	12920.8336839906	11
0	7846	12931.511232466181	10
0	7849	12934.484585694003	11
0	7851	12942.353956828718	10
0	7854	12946.960134167346	9
0	7857	12954.5610164802	8
0	7860	12958.70472481198	7
0	7863	12965.815045968657	8
0	7865	12966.757916033958	9
0	7867	12968.406838741173	10
[...]
1	6958	11409.474692449261	0
1	6960	11410.228603675476	0
1	6963	11412.270796232702	1
1	6965	11415.168407931967	2
1	6967	11425.508040012998	1
1	6970	11427.759896181023	2
1	6972	11435.756771032706	1
1	6975	11442.812909682777	2
1	6977	11443.553053368303	3
1	6979	11445.719335497327	2
1	6982	11447.688397359427	1
1	6985	11454.169019265245	2
1	6987	11454.631072378422	1
1	6990	11460.883686929677	0
1	6993	11471.962512595082	1
1	6995	11480.82368516087	0
1	6998	11483.1715704815	0
1	7000	11483.730168793634	0
1	7003	11496.493467576274	0
1	7005	11506.269842318496	0
1	7008	11507.208204410517	0
1	7010	11512.332753031217	0
1	7013	11519.301677181529	1
1	7015	11522.933331436044	0
1	7018	11527.271008541194	1
1	7020	11533.177776795407	2
1	7022	11534.194105856049	1
1	7025	11536.860256470844	0
1	7028	11537.950570441442	0
1	7030	11541.521807776041	0
1	7033	11550.853142509359	0
1	7035	11552.820954192234	0
1	7038	11556.526611057091	1
1	7040	11559.817233157876	0
1	7043	11560.985732387697	1
1	7045	11567.095470146721	2
1	7047	11573.969098207264	1
1	7050	11576.971304845537	0
1	7053	11580.911001003376	1
1	7055	11584.377526788881	0
1	7058	11586.540472132457	1
1	7060	11593.161463963371	0
1	7063	11595.885771891687	0
1	7065	11600.339331406534	0
1	7067	11600.634167380799	0
1	7070	11602.415724232802	0
1	7072	11603.783935007738	0
1	7075	11604.090823267194	0
1	7077	11616.885920785618	0
1	7080	11617.329231032595	0
1	7082	11620.068297180138	0
1	7084	11632.782363148933	0
1	7086	11638.921612267724	0
1	7089	11644.036787426607	0
1	7091	11648.836960081719	0
1	7094	11651.800640649119	0
1	7096	11659.155041792781	0
1	7099	11659.309316178623	0
1	7102	11659.977473379049	0
1	7104	11666.162747582426	0
1	7106	11675.313286295333	0
1	7109	11678.192142460288	0
1	7111	11679.212521900519	0
1	7113	11684.089030943135	0
1	7116	11690.978720854459	0
1	7119	11692.522829306119	0
1	7121	11699.805266492891	0
1	7124	11701.843447768566	0
1	7127	11702.288057042822	0
1	7130	11703.596933597333	0
1	7132	11705.124150658698	0
1	7134	11719.653870840508	0
1	7136	11720.262432110423	0
1	7139	11720.443962013324	0
1	7141	11722.612578496743	0
1	7144	11723.931161437981	0
1	7146	11727.455822777012	0
1	7148	11728.669836552188	0
1	7150	11742.398469708184	0
1	7153	11743.941925456921	0
1	7155	11748.247212426511	0
1	7158	11749.549075903342	0
1	7161	11755.937232676342	0
1	7164	11760.792726292431	0
1	7167	11765.978956706043	0
1	7169	11771.816133399985	0
1	7172	11773.020560925538	0
1	7175	11780.900025500382	0
1	7178	11787.588397869959	1
1	7180	11788.774374770733	0
1	7183	11789.333814862392	1
1	7185	11790.487658443573	0
1	7188	11794.234272469252	1
1	7190	11795.90347050226	0
1	7193	11809.048573971764	1
1	7195	11809.145228229354	2
1	7197	11819.27664802507	1
1	7200	11821.431728991793	0
1	7203	11822.471765076707	0
1	7205	11831.301133464003	0
1	7208	11832.286333676648	0
1	7210	11836.364604930919	0
1	7213	11840.353367166895	1
1	7215	11840.535869704999	2
1	7217	11843.192739499504	3
1	7219	11853.195577291481	4
1	7221	11856.196107032201	3
1	7224	11858.850618304141	2
1	7227	11859.366580458322	1
1	7230	11863.678877376892	0
1	7233	11865.603427287343	0
1	7235	11866.421100236433	0
1	7237	11867.492929897903	0
1	7239	11871.296801945832	0
1	7242	11872.06489687352	0
1	7245	11875.728975969092	0
1	7247	11876.388253014026	0
1	7249	11876.953918809287	0
1	7252	11877.621581611655	0
1	7255	11882.155498810428	0
1	7257	11883.70653150951	0
1	7259	11884.272805302479	0
1	7262	11886.393446677738	0
1	7264	11887.400251052581	0
1	7266	11888.629702441977	0
1	7268	11897.04529215665	0
1	7271	11897.188246203399	0
1	7273	11913.664855785515	0
1	7275	11914.674118664092	0
1	7278	11915.810142182604	0
1	7281	11917.247577444653	0
1	7284	11921.247269711022	0
1	7286	11924.922477002469	0
1	7289	11937.258120304436	0
1	7291	11938.879133374842	0
1	7293	11939.718841118958	0
1	7295	11940.30183399089	0
1	7298	11941.50576180207	0
1	7301	11949.063160459645	0
1	7304	11952.325143266567	0
1	7306	11960.442367287614	0
1	7309	11964.085214905868	0
1	7311	11974.450329280196	0
1	7314	11977.889117668974	0
1	7316	11985.798131210612	0
1	7319	11985.865088922142	0
1	7321	11989.757974906968	0
1	7324	11990.010833186953	0
1	7327	12017.674905412269	0
1	7329	12019.078433090901	0
1	7332	12023.558633648191	0
1	7334	12029.975342018228	0
1	7337	12037.558015182658	0
1	7339	12047.039007848316	0
1	7342	12053.279487669763	0
1	7345	12056.180055345969	0
1	7347	12057.214124300688	0
1	7350	12067.112238640207	0
1	7352	12068.604872304366	0
1	7354	12069.235986828003	0
1	7357	12071.393817719785	0
1	7359	12073.848897626551	0
1	7361	12088.817132888571	0
1	7364	12091.154492957117	0
1	7366	12096.260376560227	0
1	7369	12097.640212921928	0
1	7372	12102.844561490838	0
1	7374	12109.183887548341	0
1	7377	12109.207058710454	0
1	7379	12111.479041472811	0
1	7381	12112.081697551845	0
1	7384	12112.163005375569	0
1	7387	12134.426339759656	0
1	7390	12139.066382523092	0
1	7392	12139.666710197978	0
1	7395	12146.627600706567	0
1	7398	12146.997471452425	0
1	7400	12147.758680883586	0
1	7402	12160.944120113244	0
1	7405	12162.901582321759	0
1	7408	12164.753551680406	0
1	7410	12181.555573091688	0
1	7413	12183.363630027529	0
1	7415	12184.066538579982	0
1	7418	12187.270783094367	0
1	7420	12190.397816458698	0
1	7422	12192.810411581822	0
1	7424	12198.18693750596	0
1	7427	12201.906397997213	0
1	7429	12204.013538144735	0
1	7431	12207.385942275502	0
1	7434	12214.845189429598	0
1	7437	12217.1150858902	0
1	7439	12242.629687945639	0
1	7441	12246.194553300483	0
1	7443	12277.115560139336	0
1	7445	12278.250943295666	0
1	7448	12284.147447414436	0
1	7451	12286.408385407169	0
1	7454	12286.675726930869	0
1	7456	12290.946868996695	0
1	7459	12293.150638371665	0
1	7461	12296.203513880656	0
1	7463	12296.79706877201	0
1	7466	12301.139842799119	0
1	7468	12306.809933068125	0
1	7471	12310.471253209811	0
1	7474	12313.300759148561	0
1	7477	12320.811312327748	0
1	7479	12332.432824472702	0
1	7481	12337.588982813527	0
1	7484	12342.387898865026	0
1	7487	12345.1217169923	0
1	7490	12347.030598386605	0
1	7493	12347.519090549855	0
1	7495	12348.256168595465	0
1	7498	12357.949990635316	0
1	7500	12363.85226189719	0
1	7503	12365.945318670457	0
1	7505	12374.728334055306	0
1	7507	12375.31462470012	0
1	7509	12383.209563487799	0
1	7511	12383.559411839528	0
1	7514	12387.683944439166	0
1	7516	12398.427047364281	0
1	7518	12398.91424251032	0
1	7521	12411.155684318407	0
1	7524	12413.327185590798	0
1	7527	12421.010805326038	0
1	7530	12425.454704812467	0
1	7533	12427.449439239367	0
1	7535	12428.394430557592	0
1	7538	12429.762359234938	0
1	7540	12432.226784109646	0
1	7542	12433.367458812046	0
1	7544	12434.017366529244	0
1	7547	12435.741628603453	0
1	7550	12436.419723483329	0
1	7553	12438.142004809997	0
1	7555	12443.246010449221	0
1	7558	12447.858501830564	0
1	7560	12450.942319235486	0
1	7562	12450.955928724279	0
1	7565	12452.990402401327	0
1	7568	12453.077055844832	0
1	7570	12456.265968766225	0
1	7573	12456.894826980005	1
1	7575	12460.888426758507	0
1	7578	12465.073209601871	1
1	7580	12468.357918565768	2
1	7582	12469.425181605336	1
1	7585	12469.881188132974	0
1	7588	12476.255414961637	0
1	7590	12479.434926996295	0
1	7592	12481.606507370115	0
1	7595	12484.502288546652	0
1	7598	12484.665062433176	1
1	7600	12490.342603576598	2
1	7602	12496.034050399829	3
1	7604	12501.051116429916	2
1	7607	12504.058419021361	1
1	7610	12512.255131438962	0
1	7613	12512.795397793241	1
1	7615	12515.661017539493	2
1	7617	12518.067267538987	1
1	7620	12518.586087320624	0
1	7623	12527.209972895856	1
1	7625	12532.168466392428	0
1	7628	12532.7398757775	0
1	7630	12539.213956033165	0
1	7633	12545.547780569507	0
1	7635	12547.863494678416	0
1	7638	12548.212185666865	1
1	7640	12553.079222127415	0
1	7643	12555.677671248879	1
1	7645	12558.701507001671	0
1	7648	12560.067904435695	0
1	7650	12563.794408968905	0
1	7652	12565.336387379073	0
1	7654	12565.342038765223	0
1	7656	12570.198138555055	0
1	7659	12571.237155501461	0
1	7662	12575.26053173052	0
1	7664	12578.320803511785	0
1	7667	12597.099731977157	0
1	7669	12602.236700692733	0
1	7671	12612.63865137721	0
1	7674	12618.797922760334	0
1	7676	12619.036875240441	0
1	7679	12620.84550603105	0
1	7682	12637.325309010538	0
1	7685	12641.5664739479	0
1	7687	12648.869261586559	0
1	7690	12650.044241003854	0
1	7692	12663.594397553447	0
1	7694	12676.366786463995	0
1	7697	12676.957858735852	0
1	7699	12679.824195496154	0
1	7702	12682.14498309022	0
1	7704	12682.923692991358	0
1	7706	12683.418741942902	0
1	7708	12685.242033449249	0
1	7711	12686.981909838603	0
1	7713	12692.096423210484	0
1	7715	12726.610853916621	0
1	7718	12726.626086914553	0
1	7720	12745.545051613914	0
1	7723	12757.768704871474	0
1	7726	12758.46610442523	0
1	7728	12758.860306120112	0
1	7731	12762.844826718806	0
1	7734	12767.539211382348	0
1	7737	12769.811567577827	0
1	7739	12770.208633529336	0
1	7741	12773.820192754944	0
1	7744	12776.423475805462	0
1	7746	12781.232393059597	0
1	7748	12801.985489494182	0
1	7751	12805.343099199104	0
1	7754	12806.631881408447	0
1	7757	12808.172552895227	0
1	7760	12809.174999228326	0
1	7763	12823.9031669653	0
1	7765	12825.770504067588	0
1	7768	12826.412689057631	0
1	7770	12826.761633120081	0
1	7772	12827.355392649601	0
1	7775	12829.899229222444	0
1	7777	12830.336942403098	0
1	7779	12831.893366495946	0
1	7782	12832.695128188904	0
1	7784	12834.781770210994	0
1	7787	12839.558501795237	0
1	7790	12842.342856647598	0
1	7792	12852.600985351571	0
1	7794	12852.919986387696	0
1	7797	12859.702948742009	0
1	7800	12859.726101676012	0
1	7803	12866.076179658363	1
1	7805	12867.887622427069	0
1	7808	12874.233989552163	0
1	7810	12878.379886076502	0
1	7812	12882.728057833966	0
1	7815	12898.150108268134	0
1	7818	12898.781930426812	1
1	7820	12899.931468477206	0
1	7823	12904.28106336802	0
1	7825	12908.371394679346	0
1	7828	12908.3932989012	1
1	7830	12911.798724232117	2
1	7832	12912.325961080569	3
1	7834	12913.839273173546	4
1	7836	12914.197382224462	3
1	7839	12916.667215292693	4
1	7841	12920.258347542751	5
1	7843	12920.8336839906	4
1	7846	12931.511232466181	3
1	7849	12934.484585694003	4
1	7851	12942.353956828718	3
1	7854	12946.960134167346	2
1	7857	12954.5610164802	1
1	7860	12958.70472481198	0
1	7863	12965.815045968657	1
1	7865	12966.757916033958	2
1	7867	12968.406838741173	3
1	7869	12969.532313545577	4
1	7871	12972.783638637184	5
1	7873	12974.166755763961	4
1	7876	12979.976134200453	3
1	7879	12986.686385510061	4
1	7881	12995.974618212199	3
1	7884	12996.091970341282	4
1	7886	12998.788866656611	5
1	7888	12999.752481151613	4
1	7891	13001.653920014068	5
1	7893	13007.737169514189	6
1	7895	13013.571204993109	5
1	7898	13015.21605637077	4
1	7901	13018.455942173774	3
1	7904	13019.113099091618	2
1	7907	13019.415343339529	3
1	7909	13020.617659139659	2
1	7912	13021.604690672579	3
1	7914	13023.282435413591	2
1	7917	13024.127739097026	1
1	7920	13030.287738429425	0
1	7923	13031.745665256689	1
1	7925	13034.224584134922	0
1	7928	13035.538406707956	0
1	7930	13045.391801501934	0
1	7932	13051.049631100606	0
1	7934	13051.996292020501	0
1	7937	13052.857667484054	0
1	7939	13064.485413741404	0
1	7941	13064.727434969176	0
1	7943	13066.910475811668	0
1	7945	13070.839663174703	0
1	7948	13073.893497544354	0
1	7951	13094.367584403742	0
1	7953	13102.901137964163	0
1	7955	13113.194495443683	0
1	7958	13115.938592728234	0
1	7961	13125.209814118422	0
1	7963	13125.837093728929	0
1	7966	13133.333567754896	0
1	7968	13144.708405205544	0
1	7971	13153.183076839475	0
1	7974	13159.51340820924	0
1	7977	13163.214935592574	0
1	7979	13172.071468350648	0
1	7982	13174.227208254898	0
1	7984	13187.062678468461	0
1	7987	13190.159298888795	0
1	7990	13192.756192105012	0
1	7993	13195.237986289293	0
1	7995	13210.170871017972	0
1	7997	13224.069550362418	0
1	8000	13225.033623348839	0
1	8002	13229.077765846203	0
1	8005	13229.146540509304	0
1	8008	13230.426886272268	1
1	8010	13231.892222950424	0
1	8013	13236.617617734033	1
1	8015	13243.984910893226	2
1	8017	13244.505676883792	3
1	8019	13250.388255771067	2
1	8022	13252.632497448091	3
1	8024	13257.196812586099	2
1	8027	13258.743511242221	1
1	8030	13260.838420053715	2
1	8032	13261.03457994458	1
1	8035	13265.35658204103	2
1	8037	13271.486770937598	1
1	8040	13277.059310963392	0
1	8043	13277.360034145337	1
1	8045	13277.513774881171	0
1	8048	13279.453276770647	1
1	8050	13284.674329489997	0
1	8053	13286.795735619419	0
1	8055	13295.302431694146	0
1	8058	13295.304786062668	1
1	8060	13299.974904087256	2
1	8062	13306.200164281822	1
1	8065	13313.366954995551	0
1	8068	13313.578096938361	0
1	8070	13316.013228667099	0
1	8072	13320.213389866688	0
1	8074	13325.780217276519	0
1	8076	13329.956848224141	0
1	8079	13341.90120610238	0
1	8081	13346.738964888652	0
1	8084	13347.033052587419	0
1	8086	13358.342859384764	0
1	8089	13361.49935480186	0
1	8091	13363.738168096716	0
1	8093	13368.511849499025	0
1	8095	13375.791157605206	0
1	8098	13379.313510581885	0
1	8101	13385.215387087145	0
1	8103	13396.459291301588	0
1	8106	13401.339235466148	0
1	8108	13402.360800297363	0
1	8110	13407.295398378991	0
1	8113	13408.756125257627	0
1	8116	13420.070176559818	0
1	8119	13421.642549215699	0
1	8121	13422.379573655869	0
1	8124	13426.149221404835	0
1	8126	13433.112110809036	0
1	8129	13434.956410151885	0
1	8131	13441.888454012724	0
1	8134	13447.80243315616	0
1	8137	13450.732382023715	0
1	8140	13455.186550862001	0
1	8143	13460.488068952736	1
1	8145	13478.074967955726	0
1	8148	13479.872249178477	0
1	8150	13481.225186206249	0
1	8152	13481.976838605866	0
1	8155	13482.816126522364	0
1	8157	13486.482446658083	0
1	8160	13488.175047618258	0
1	8163	13490.05762425951	1
1	8165	13491.121005678501	0
1	8168	13493.712189568647	1
1	8170	13496.505081170915	0
1	8173	13504.307841007439	1
1	8175	13505.615855491275	2
1	8177	13506.741941189205	1
1	8180	13508.387488967382	2
1	8182	13508.875895698705	1
1	8185	13517.956291538842	0
1	8188	13518.769667359474	0
1	8190	13521.152963506333	0
1	8192	13522.481111567209	0
1	8194	13524.748626122476	0
1	8197	13527.142828038547	0
1	8199	13528.065620223054	0
1	8202	13529.979575204512	0
1	8205	13531.373704215939	0
1	8207	13533.049605494692	0
1	8209	13543.003355210888	0
1	8211	13543.094110804339	0
1	8214	13548.893602334921	0
1	8216	13550.063140802924	0
1	8219	13553.210717683015	0
1	8221	13555.135951153619	0
1	8223	13562.210167546045	0
1	8226	13566.435252843742	0
1	8229	13567.931437173778	0
1	8231	13571.89028483658	0
1	8234	13582.632148364312	0
1	8237	13587.987922772594	0
1	8240	13592.114536474763	0
1	8243	13604.126383836917	0
1	8245	13604.758355923141	0
1	8248	13604.771615892623	0
1	8250	13609.079760193797	0
1	8252	13612.029196632128	0
1	8254	13612.638398896942	0
1	8257	13621.098224947693	0
1	8260	13624.909507350482	0
1	8263	13626.83817126815	0
1	8265	13633.093172265183	0
1	8267	13642.190818464675	0
1	8269	13643.51867748018	0
1	8272	13644.285004256164	0
1	8275	13649.457401282745	0
1	8277	13650.811791163535	0
1	8280	13657.856613963499	0
1	8282	13658.295450974298	0
1	8285	13662.992345551574	0
1	8287	13664.142321969166	0
1	8289	13665.169287584114	0
1	8292	13673.144875255175	0
1	8294	13676.659896834717	0
1	8297	13676.711019736148	0
1	8300	13677.517595691206	0
1	8302	13681.81335990965	0
1	8305	13684.985670662777	0
1	8307	13690.954378211369	0
1	8309	13691.426627126972	0
1	8311	13696.891457949379	0
1	8314	13701.476127054115	0
1	8317	13704.82396091855	0
1	8319	13716.576771252259	0
1	8321	13730.942231148873	0
1	8324	13735.832660539884	0
1	8326	13738.172813731159	0
1	8328	13742.518288675381	0
1	8330	13745.602796203954	0
1	8333	13751.72619673363	0
1	8336	13752.022303554127	0
1	8338	13754.764971413823	0
1	8340	13762.225158588915	0
1	8343	13762.245875128128	0
1	8346	13764.478004299293	0
1	8348	13766.958570917424	0
1	8351	13775.098691610793	0
1	8354	13776.858237473229	0
1	8356	13783.36515684474	0
1	8358	13788.857840430677	0
1	8361	13807.279979061984	0
1	8364	13811.600594815997	0
1	8367	13811.849591903878	0
1	8369	13816.656160278751	0
1	8371	13824.231108860809	0
1	8374	13826.907586704551	0
1	8377	13829.042135287552	0
1	8380	13839.855654250458	0
1	8382	13841.402697848572	0
1	8385	13844.480552076735	0
1	8388	13846.157047851618	0
1	8390	13857.364506750094	0
1	8393	13862.225828216289	0
1	8395	13869.718292857557	0
1	8397	13873.868634708592	0
1	8400	13883.343891610182	0
1	8402	13885.061181975342	0
1	8405	13885.267462816753	0
1	8407	13887.357481492635	0
1	8410	13887.598597003237	0
1	8412	13891.215114023419	0
1	8415	13894.590980861891	0
1	8417	13894.817318181304	0
1	8420	13906.57968837742	0
1	8423	13909.363680970312	1
1	8425	13916.951351656083	2
1	8427	13918.75170108954	3
1	8429	13919.496128730583	2
1	8432	13930.110861662366	1
1	8435	13931.182871286892	0
1	8438	13934.88607403432	0
1	8440	13951.337588699278	0
1	8443	13953.059580235179	0
1	8445	13955.83060030047	0
1	8448	13958.929587086535	0
1	8450	13963.47421856799	0
1	8453	13972.134271319197	1
1	8455	13973.862281950708	0
1	8458	13974.307374056278	0
1	8460	13977.794162990667	0
1	8463	13986.196620538746	0
1	8465	13990.029124475419	0
1	8468	13990.732142046385	0
1	8470	13993.060226657765	0
1	8472	13993.888961298419	0
1	8475	13994.785207990778	0
1	8478	13997.296475506762	0
1	8480	13997.331016179489	0
1	8483	13998.694254314599	0
1	8485	14002.528694913204	0
1	8487	14012.113654020941	0
1	8489	14019.020601896672	0
1	8492	14019.580893642378	0
1	8494	14019.715243975649	0
1	8497	14021.792700871509	0
1	8500	14024.357487711595	0
1	8503	14029.178593606215	0
1	8505	14035.619011452398	0
1	8508	14044.665019140533	0
1	8510	14048.664090347009	0
1	8512	14049.623934002775	0
1	8515	14052.725060138438	0
1	8518	14054.325149820331	1
1	8520	14054.605765056346	0
1	8523	14056.297051429075	1
1	8525	14056.955808467821	0
1	8528	14067.716937281166	0
1	8530	14075.727252482875	0
1	8533	14076.251952484361	1
1	8535	14078.251269982386	0
1	8538	14079.136903104529	0
1	8540	14080.539635081888	0
1	8543	14092.009434365499	1
1	8545	14095.316368112	0
1	8548	14095.753446775793	0
1	8550	14100.289467342321	0
1	8552	14102.63507108579	0
1	8554	14109.875759386304	0
1	8556	14114.73748381937	0
1	8559	14115.786310379199	0
1	8562	14121.006811208325	0
1	8564	14122.776892928241	0
1	8566	14122.987234669173	0
1	8569	14128.298681613544	0
1	8571	14131.75674067947	0
1	8574	14132.251431928656	0
1	8577	14132.394062616195	0
1	8580	14134.492192848007	0
1	8582	14136.617938518388	0
1	8585	14144.543692255098	0
1	8587	14147.667348713777	0
1	8590	14149.690524454864	0
1	8592	14152.714479823598	0
1	8595	14152.76925760653	0
1	8597	14159.919560154026	0
1	8599	14160.386439497493	0
1	8602	14160.747627801435	0
1	8604	14164.416887730637	0
1	8607	14168.087289321029	0
1	8609	14183.569319785534	0
1	8612	14186.906982788513	0
1	8615	14191.400250864824	0
1	8618	14195.01223318698	1
1	8620	14199.703127164097	0
1	8623	14202.997122659346	0
1	8625	14204.773712039152	0
1	8627	14214.436341449061	0
1	8630	14214.89880387477	0
1	8632	14215.35257527726	0
1	8634	14216.950371267674	0
1	8636	14217.086401890905	0
1	8638	14223.302639802128	0
1	8641	14233.770258528694	0
1	8643	14234.90632014819	0
1	8646	14240.069122154133	0
1	8649	14245.242237290977	0
1	8651	14249.82239544294	0
1	8653	14250.842408704181	0
1	8656	14251.095725001449	0
1	8658	14251.690017891414	0
1	8661	14254.903937091492	0
1	8664	14255.270412409683	0
1	8667	14264.897053192265	0
1	8670	14267.331121089024	0
1	8672	14270.214536583132	0
1	8675	14272.531308835446	0
1	8678	14272.753138986984	1
1	8680	14278.578074854018	0
1	8683	14281.445026264609	0
1	8685	14287.248061236879	0
1	8687	14292.464334854812	0
1	8689	14294.664819889816	0
1	8691	14296.758314201255	0
1	8693	14297.464355903267	0
1	8696	14301.188249710721	0
1	8698	14304.091873516612	0
1	8701	14321.986698968703	0
1	8704	14335.124183132383	0
1	8707	14335.981689336997	0
1	8710	14344.079427203585	0
1	8713	14344.897335579427	0
1	8715	14347.935840671944	0
1	8718	14351.891074511687	1
1	8720	14354.554228568113	2
1	8722	14354.967520698044	3
1	8724	14355.484182447724	4
1	8726	14360.149882444581	3
1	8729	14362.111658356117	2
1	8732	14364.324808644097	3
1	8734	14366.800535878731	2
1	8737	14385.900677638756	1
1	8740	14388.16320840593	0
1	8743	14398.997062553591	0
1	8745	14399.705775325593	0

