version 2
run POLICY_1-24-20191213-12:40:10-1218
attr configname POLICY_1
attr datetime 20191213-12:40:10
attr experiment POLICY_1
attr inifile omnetpp.ini
attr iterationvars ""
attr iterationvarsf ""
attr measurement ""
attr network Carrefour
attr processid 1218
attr repetition 24
attr replication #24
attr resultdir results
attr runnumber 24
attr seedset 24
param **.policy 1
param **.delta 0s
param **.tillsNumber 7
param **.capacity 0.3
param **.meanInterArrivalTime 8s
param **.meanItemsInACart 12
param **.interArrivalDistribution 0
param **.itemsInCartDistribution 0

vector 0 Carrefour.decider stats_numCustomers:vector ETV
attr "" ""
attr source numCustomers
vector 1 Carrefour.decider stats_numCustomersQueue:vector ETV
attr "" ""
attr source numCustomersQueue
0	782	1200.802600931165	10
0	784	1204.229331020072	9
0	787	1204.441772312797	8
0	790	1207.073196014351	7
0	793	1207.16078044262	6
0	795	1211.71471690576	7
0	798	1212.092230811627	8
0	800	1215.540592445719	9
0	802	1218.898595634637	8
0	805	1219.918737910519	9
0	807	1221.462083538504	8
0	810	1225.222475718949	9
0	812	1226.414594919559	8
0	815	1228.16858484148	9
0	817	1229.330365475181	8
0	820	1234.993836834404	9
0	822	1243.301783514253	10
0	824	1243.772587208885	9
0	827	1244.863187536236	8
0	830	1245.911672843091	9
0	832	1247.608554529229	10
0	834	1248.308958007971	9
0	837	1249.27513914798	8
0	840	1250.234230723879	9
0	842	1251.582546043826	8
0	845	1252.31969425104	7
0	848	1254.039202345848	6
0	850	1254.194056899407	7
0	853	1255.584794944542	6
0	855	1257.180311446896	5
0	857	1259.904327120172	4
0	859	1272.323583111893	3
0	861	1287.356912877053	4
0	864	1288.788853420311	5
0	867	1293.523381389843	6
0	870	1298.639567116575	7
0	873	1299.191510748911	8
0	875	1300.876363986542	9
0	877	1304.460363885024	10
0	879	1305.746494541492	9
0	882	1308.829420598083	8
0	885	1310.370752064112	7
0	888	1319.349489353507	8
0	890	1319.674779551752	9
0	892	1322.474067904862	8
0	895	1323.743196106668	9
0	897	1323.939811536578	10
0	899	1326.797423999259	9
0	902	1328.34247006212	10
0	904	1330.156988488348	9
0	907	1332.65449310357	8
0	910	1333.044646030222	7
0	913	1341.181827052063	8
0	915	1342.066242639618	7
0	918	1350.937082717407	6
0	920	1352.614625120917	7
0	923	1359.452894185512	6
0	925	1365.446951903411	5
0	927	1365.754451621098	6
0	930	1366.991502800105	5
0	932	1374.562481664865	4
0	934	1380.972518599204	5
0	937	1383.476450792033	6
0	940	1389.992364311401	7
0	943	1391.303080665505	6
0	945	1391.391389867041	5
0	947	1392.203938124909	6
0	950	1393.001707816304	7
0	953	1395.393200787798	8
0	955	1396.080583921825	7
0	958	1402.252033362446	8
0	960	1407.351172555776	7
0	963	1407.798605247619	6
0	965	1416.937286628628	5
0	967	1424.614608214683	4
0	969	1430.32622904517	3
0	971	1437.766872960608	4
0	974	1440.517278663898	3
0	976	1443.464715759823	2
0	978	1443.588567568981	3
0	981	1444.738552262302	2
0	983	1453.619836886624	3
0	986	1458.133773878935	4
0	989	1459.646415903341	3
0	991	1462.781537522766	2
0	993	1465.611844355695	3
0	996	1475.949010813074	2
0	998	1485.913091746874	1
0	1000	1490.982419009912	2
0	1003	1512.260001864046	3
0	1006	1514.329137196979	4
0	1009	1518.327885376552	5
0	1012	1519.95495020042	4
0	1014	1520.1829834914	5
0	1017	1521.915978060767	6
0	1020	1527.461379993159	5
0	1022	1538.48473387985	6
0	1025	1538.746452777056	5
0	1027	1539.502910657628	4
0	1029	1549.544150588221	5
0	1032	1550.908643480858	4
0	1034	1553.651000278769	3
0	1036	1556.421621923252	4
0	1039	1557.814213749788	3
0	1041	1561.223612778778	4
0	1044	1570.623976606855	3
0	1046	1579.567076117311	2
0	1048	1580.788400326036	1
0	1050	1582.497502041506	2
0	1053	1583.472997972949	3
0	1056	1583.809946911979	4
0	1059	1584.043460653404	5
0	1062	1584.643244459192	6
0	1065	1587.260414276535	7
0	1068	1589.707505487453	8
0	1070	1601.672181906927	7
0	1073	1603.61325705727	8
0	1075	1607.526005884439	7
0	1078	1610.505436050181	6
0	1080	1613.131591424205	7
0	1083	1615.484180623736	8
0	1085	1617.036951874143	9
0	1087	1621.63410232699	10
0	1089	1637.248452834196	11
0	1091	1638.38428476284	10
0	1094	1639.447514392095	11
0	1096	1641.198808390637	10
0	1099	1643.277173514624	9
0	1102	1645.664345829257	8
0	1105	1649.188614715515	9
0	1107	1653.469758552044	10
0	1109	1654.769726529477	9
0	1112	1663.309980026265	10
0	1114	1667.702839643468	9
0	1117	1675.085015768045	8
0	1120	1678.923574026426	7
0	1123	1683.210990875918	8
0	1125	1689.022011940995	7
0	1128	1693.265907239476	6
0	1130	1699.145814300638	5
0	1132	1706.361529027135	4
0	1134	1709.369303772596	3
0	1136	1722.46496836784	4
0	1139	1725.085392035065	5
0	1142	1727.435237341741	4
0	1144	1731.815216382616	3
0	1146	1738.436072809231	4
0	1149	1738.892804200547	5
0	1152	1740.027434671502	6
0	1155	1740.818886023942	5
0	1157	1741.667296925347	6
0	1160	1742.677347485367	5
0	1162	1744.413904943764	6
0	1165	1745.495090248155	7
0	1168	1747.719448794915	6
0	1170	1751.261378418134	7
0	1173	1752.617045719941	8
0	1175	1753.899399967477	9
0	1177	1761.148619316771	8
0	1180	1766.515063931776	7
0	1183	1769.981814824698	6
0	1185	1773.242654323691	5
0	1187	1775.773982990667	6
0	1190	1777.496987174721	7
0	1193	1781.323149914298	6
0	1195	1781.628855130582	5
0	1197	1784.05737971675	6
0	1200	1784.748444766322	7
0	1203	1786.278845750378	6
0	1205	1792.758369593094	5
0	1207	1794.941596198893	4
0	1209	1796.004311547431	3
0	1211	1798.62425307687	2
0	1213	1811.602110316636	1
0	1215	1821.073154576006	0
0	1217	1826.347518243236	1
0	1220	1828.333121842045	2
0	1223	1836.667883461036	1
0	1225	1838.635114331666	2
0	1228	1839.419773675364	3
0	1231	1842.75198359047	4
0	1234	1844.383285838787	5
0	1237	1865.842987677526	6
0	1240	1867.925620290743	7
0	1243	1881.059977317966	6
0	1245	1886.30046548244	7
0	1248	1887.900016983858	8
0	1250	1888.792437087043	7
0	1253	1890.747827198035	6
0	1255	1897.896219669735	5
0	1257	1901.538520942742	4
0	1259	1908.539382962807	3
0	1261	1916.014634996656	4
0	1264	1917.2466223317	5
0	1267	1923.803627781356	6
0	1270	1925.21912101571	5
0	1272	1927.855755864309	4
0	1274	1940.533474964591	3
0	1276	1941.021449878137	4
0	1279	1944.58551620437	5
0	1282	1946.503259292856	4
0	1284	1948.944928906329	5
0	1287	1953.332971225783	6
0	1290	1953.626235439874	7
0	1293	1954.538377612794	8
0	1295	1954.553942175836	7
0	1298	1955.96730826935	8
0	1300	1956.270002438756	7
0	1303	1958.687804012971	6
0	1305	1960.714584517186	5
0	1307	1970.371577666215	6
0	1310	1970.585291929722	7
0	1313	1974.820313545555	6
0	1315	1980.950770007503	5
0	1317	1984.247701656162	4
0	1319	1986.646641522836	3
0	1321	1990.137587024619	4
0	1324	1990.375651607158	3
0	1326	1994.736232449811	2
0	1328	1995.94506482423	3
0	1331	1999.037351076457	4
0	1334	2002.260055338729	5
0	1337	2003.679305576884	4
0	1339	2006.453240788649	5
0	1342	2016.897300945959	6
0	1345	2020.084262720423	7
0	1348	2021.797309295402	6
0	1350	2025.985040041453	5
0	1352	2027.806094171627	4
0	1354	2034.437851917899	5
0	1357	2035.593674124383	4
0	1359	2040.442888527502	3
0	1361	2040.464313152637	2
0	1363	2047.574880731482	3
0	1366	2050.845455610831	2
0	1368	2051.896694926449	3
0	1371	2055.336507866664	4
0	1374	2057.175176263224	5
0	1377	2062.221305917526	6
0	1380	2067.656046412568	7
0	1383	2067.855460855396	6
0	1385	2068.721723801923	5
0	1387	2072.364240828829	4
0	1389	2075.929750774042	5
0	1392	2076.619626072326	4
0	1394	2085.773988558843	3
0	1396	2094.451652498218	2
0	1398	2094.569345651598	3
0	1401	2102.864711475616	4
0	1404	2106.881366821706	5
0	1407	2122.332911944002	6
0	1410	2123.677727178355	5
0	1412	2134.497394774282	6
0	1415	2139.239427507819	5
0	1417	2144.972971646277	6
0	1420	2146.161184870016	7
0	1423	2148.834580652907	8
0	1425	2151.883547764564	7
0	1428	2157.674696416851	6
0	1430	2161.928255722518	5
0	1432	2163.993426753797	4
0	1434	2164.41838764005	5
0	1437	2172.128418329806	6
0	1440	2180.548698533887	7
0	1443	2185.18076615081	6
0	1445	2188.120363354704	5
0	1447	2192.725166222544	4
0	1449	2202.010902028561	5
0	1452	2207.402441129611	6
0	1455	2210.681452074537	7
0	1458	2211.737843642384	6
0	1460	2212.94730677024	5
0	1462	2214.179497700795	4
0	1464	2217.096080708381	5
0	1467	2217.395334440847	6
0	1470	2221.651476719601	7
0	1473	2228.051097613434	6
0	1475	2229.845013603667	7
0	1478	2230.448936258059	8
0	1480	2239.640553986787	9
0	1482	2241.250131913708	10
0	1484	2247.451140366884	11
0	1486	2251.7224431341	12
0	1488	2254.100630716681	11
0	1491	2261.174259906547	10
0	1494	2261.529335723196	11
0	1496	2261.677416427204	10
0	1499	2263.706894272547	11
0	1501	2263.975307134093	10
0	1504	2266.238348800626	9
0	1507	2267.583875447514	10
0	1509	2269.739553282727	11
0	1511	2274.593551654618	10
0	1514	2278.747229654849	9
0	1517	2279.031998868146	10
0	1519	2279.033177285094	9
0	1522	2283.582100247404	8
0	1525	2285.190839612232	7
0	1528	2290.184309197784	6
0	1530	2291.596619277964	7
0	1533	2294.490268160988	6
0	1535	2299.067985368007	7
0	1538	2315.181948099099	6
0	1540	2317.007713364361	5
0	1542	2317.81824244818	6
0	1545	2320.272498619771	5
0	1547	2324.218412050563	6
0	1550	2330.887094139592	7
0	1553	2334.615085371122	8
0	1555	2336.79362136497	7
0	1558	2337.711548773337	6
0	1560	2339.713288881244	7
0	1563	2340.27425797864	6
0	1565	2342.353685106647	5
0	1567	2355.062153257682	4
0	1569	2366.163292353313	5
0	1572	2368.207517614623	6
0	1575	2374.322099364456	5
0	1577	2376.511139571567	6
0	1580	2376.724476757752	7
0	1583	2381.184675435559	6
0	1585	2389.259042069879	5
0	1587	2389.70425439338	4
0	1589	2390.463998192675	3
0	1591	2394.19379072596	2
0	1593	2395.827362901592	3
0	1596	2400.542389384514	4
0	1599	2405.597319412163	3
0	1601	2423.494721328027	2
0	1603	2425.345200764814	3
0	1606	2434.453509400734	4
0	1609	2436.623388161762	5
0	1612	2442.51015027525	4
0	1614	2446.110992648944	5
0	1617	2448.175244451357	6
0	1620	2450.343898410576	5
0	1622	2451.613469117325	6
0	1625	2455.221875517648	7
0	1628	2455.610832790229	8
0	1630	2459.472825568501	9
0	1632	2463.401753069464	8
0	1635	2464.451185316921	7
0	1638	2466.134035485756	6
0	1640	2467.896534146312	5
0	1642	2472.641542263857	4
0	1644	2474.707176920932	3
0	1646	2484.405817012507	4
0	1649	2488.503210875453	3
0	1651	2488.654795320871	2
0	1653	2492.424196912519	3
0	1656	2495.875299579846	4
0	1659	2498.781638678285	3
0	1661	2524.871278505663	4
0	1664	2528.117329151457	5
0	1667	2532.623383437208	4
0	1669	2533.227896047131	5
0	1672	2533.708812188289	4
0	1674	2534.258660445841	3
0	1676	2537.522884398672	4
0	1679	2541.804023365359	5
0	1682	2542.494125498368	4
0	1684	2543.609938062704	3
0	1686	2552.680070213715	2
0	1688	2556.859833583906	3
0	1691	2557.25686329892	4
0	1694	2558.825412864384	5
0	1697	2558.850064176247	4
0	1699	2568.368380865488	3
0	1701	2575.232617771554	2
0	1703	2584.083852214924	1
0	1705	2587.500663983333	2
0	1708	2589.180043306869	3
0	1711	2592.754063320761	2
0	1713	2617.469790164442	1
0	1715	2620.02845316443	2
0	1718	2625.847238618035	1
0	1720	2630.977144424523	2
0	1723	2633.753253244429	1
0	1725	2639.488119952526	2
0	1728	2649.690604400908	3
0	1731	2650.794229909903	2
0	1733	2650.942958538564	3
0	1736	2653.008393221278	4
0	1739	2653.576850620244	3
0	1741	2667.926634029749	2
0	1743	2671.0672317018	3
0	1746	2675.831974060363	4
0	1749	2677.4140045815	3
0	1751	2681.210628460962	4
0	1754	2690.642681613569	5
0	1757	2691.787317836436	4
0	1759	2696.524453499899	3
0	1761	2698.413939788185	4
0	1764	2702.103470462021	5
0	1767	2702.964391544104	6
0	1770	2713.557420780677	7
0	1773	2723.98014117956	8
0	1775	2726.341141776641	9
0	1777	2727.413994033142	10
0	1779	2736.316149398722	9
0	1782	2738.711270919611	8
0	1785	2741.776850532095	9
0	1787	2746.057775635825	10
0	1789	2746.735467761073	9
0	1792	2760.840765477396	8
0	1795	2770.942669663868	7
0	1798	2777.356493643	8
0	1800	2777.969863760853	7
0	1803	2778.049376843442	6
0	1805	2783.059674231761	5
0	1807	2786.68499418403	6
0	1810	2786.845991000839	5
0	1812	2790.195199110851	6
0	1815	2803.806522842617	7
0	1818	2816.497230221567	6
0	1820	2821.494676618895	7
0	1823	2823.608080701094	8
0	1825	2823.766033375967	9
0	1827	2824.633747187366	8
0	1830	2827.046777034994	9
0	1832	2827.529913681292	10
0	1834	2831.432346353603	11
0	1836	2832.977746856908	12
0	1838	2838.474694810986	13
0	1840	2843.695202455225	14
0	1842	2845.80159573358	13
0	1845	2852.818116615294	12
0	1848	2858.451469439666	11
0	1851	2863.204375488244	10
0	1854	2864.602814036897	9
0	1857	2874.403093274159	10
0	1859	2874.876682685992	11
0	1861	2879.578351424323	12
0	1863	2879.613041722681	11
0	1866	2881.833297135909	12
0	1868	2884.078397970841	11
0	1871	2886.637807834263	10
0	1874	2890.131621135063	9
0	1877	2892.446721902676	8
0	1880	2898.339668686647	9
0	1882	2901.867191838521	8
0	1885	2907.851656251771	7
0	1888	2912.159803387773	6
0	1890	2916.748958163371	5
0	1892	2924.818933056794	4
0	1894	2927.960256187626	5
0	1897	2937.092967778299	4
0	1899	2940.620813992615	5
0	1902	2947.526205701504	4
0	1904	2951.469045172319	5
0	1907	2952.130197717061	6
0	1910	2960.073087050616	5
0	1912	2969.176874667691	6
0	1915	2969.995303867378	5
0	1917	2970.461845015793	4
0	1919	2973.235374502861	3
0	1921	2984.971368536923	2
0	1923	2996.772273189889	3
0	1926	3000.324558786022	2
0	1928	3000.949047697176	1
0	1930	3006.181417125102	2
0	1933	3006.212293585087	1
0	1935	3008.069218815296	0
0	1937	3027.383387875918	1
0	1940	3032.273639350185	2
0	1943	3033.009151736671	3
0	1946	3044.790694075564	2
0	1948	3044.946892653147	3
0	1951	3050.922804445286	4
0	1954	3051.450686595414	3
0	1956	3057.485085180396	4
0	1959	3057.503379571807	5
0	1962	3058.883970827158	6
0	1965	3064.375145774898	7
0	1968	3067.278022764174	6
0	1970	3074.117170559196	5
0	1972	3083.880489927853	4
0	1974	3084.02235543719	5
0	1977	3087.072952148993	4
0	1979	3090.884628599076	3
0	1981	3097.07068539448	2
0	1983	3105.658559033744	3
0	1986	3115.724421720905	2
0	1988	3116.714530678686	1
0	1990	3117.949338906913	0
0	1992	3124.08876732063	1
0	1995	3132.512342317416	2
0	1998	3132.879705991938	1
0	2000	3135.065719406053	2
0	2003	3136.013434160924	3
0	2006	3141.763252188601	2
0	2008	3143.774891276123	3
0	2011	3149.920994401072	4
0	2014	3154.689969584281	5
0	2017	3157.472589318037	6
0	2020	3160.681839397269	7
0	2023	3166.189660202099	8
0	2025	3167.118459204001	9
0	2027	3175.202300272799	10
0	2029	3180.260783282254	9
0	2032	3182.083439042903	8
0	2035	3184.538842412641	7
0	2038	3194.472090642852	6
0	2040	3201.082013153411	5
0	2042	3203.707632363256	6
0	2045	3204.378153863954	5
0	2047	3222.671227727817	4
0	2049	3230.17299400702	5
0	2052	3239.974615684882	6
0	2055	3250.831197559619	7
0	2058	3250.925239686226	6
0	2060	3255.203450693785	7
0	2063	3258.945903661432	6
0	2065	3259.000076559324	7
0	2068	3260.900496899319	6
0	2070	3261.54567475142	5
0	2072	3264.321081411303	6
0	2075	3272.390883548159	5
0	2077	3277.019781331375	6
0	2080	3277.451857422765	7
0	2083	3279.33851267604	6
0	2085	3280.763781362817	7
0	2088	3280.987306618403	6
0	2090	3282.732158873762	7
0	2093	3285.523789883063	6
0	2095	3286.487845986553	5
0	2097	3291.588502175254	4
0	2099	3291.843612871714	5
0	2102	3295.128770736354	4
0	2104	3295.630451727418	3
0	2106	3295.64009311843	4
0	2109	3298.787522430683	5
0	2112	3299.425713552974	6
0	2115	3300.644974195311	5
0	2117	3304.949308093089	6
0	2120	3308.38921100437	7
0	2123	3311.208665001778	6
0	2125	3313.928128551531	7
0	2128	3327.021151835932	6
0	2130	3331.771311316694	5
0	2132	3333.382656917863	4
0	2134	3334.661269010253	5
0	2137	3339.340201446632	6
0	2140	3341.378532625886	7
0	2143	3344.985156042647	8
0	2145	3346.884236477465	7
0	2148	3347.542479906212	8
0	2150	3348.43385538899	9
0	2152	3348.718594293748	8
0	2155	3348.957423169396	7
0	2158	3349.779253599245	8
0	2160	3352.944949350095	9
0	2162	3359.116865009693	10
0	2164	3361.279016201937	9
0	2167	3361.874448778337	8
0	2170	3368.12530778627	7
0	2173	3368.906545754406	6
0	2175	3379.999759929655	7
0	2178	3384.103711987907	6
0	2180	3390.461180542105	5
0	2182	3392.821053856321	4
0	2184	3394.747444429058	5
0	2187	3400.507167327126	6
0	2190	3402.050698120417	7
0	2193	3412.97660460575	8
0	2195	3413.142403865408	9
0	2197	3416.156830267101	8
0	2200	3418.508074943331	9
0	2202	3418.682519354728	8
0	2205	3422.09691408236	7
0	2208	3422.406763877047	6
0	2210	3425.909174323296	5
0	2212	3434.948941435067	4
0	2214	3436.158007574711	3
0	2216	3447.356778637884	4
0	2219	3448.108292511964	5
0	2222	3448.973819584788	6
0	2225	3449.070934068942	7
0	2228	3453.752173580481	6
0	2230	3454.101467215222	7
0	2233	3454.281610199358	6
0	2235	3463.385050522365	5
0	2237	3464.883485304512	4
0	2239	3468.966261658859	3
0	2241	3472.591309042546	4
0	2244	3475.261632208359	3
0	2246	3480.597006857959	2
0	2248	3487.136715513133	3
0	2251	3491.013677379115	4
0	2254	3500.293602066101	5
0	2257	3502.542993976096	4
0	2259	3512.74861429197	5
0	2262	3514.11253148123	4
0	2264	3516.12020412224	3
0	2266	3524.511258666002	4
0	2269	3540.574155027331	3
0	2271	3544.747196713744	4
0	2274	3547.066706575437	3
0	2276	3551.65621968887	2
0	2278	3552.965491893477	1
0	2280	3561.430320600867	2
0	2283	3578.689378851626	3
0	2286	3578.692873834801	4
0	2289	3579.607337451594	5
0	2292	3580.548897601122	6
0	2295	3582.076911050727	5
0	2297	3583.997070204405	4
0	2299	3584.815937373456	5
0	2302	3589.079454742585	6
0	2305	3589.379881977109	7
0	2308	3596.578847246505	8
0	2310	3597.220141744881	9
0	2312	3598.978724878958	10
0	2314	3616.778331566721	9
0	2317	3618.532054336941	10
0	2319	3619.086156075718	11
0	2321	3626.868582455262	10
0	2324	3629.30087029355	9
0	2327	3634.113505207013	10
0	2329	3635.448479352204	9
0	2332	3645.855417984285	8
0	2335	3665.180476067956	9
0	2337	3665.80252317493	8
0	2340	3668.932395483727	9
0	2342	3669.416877240193	10
0	2344	3669.983931566692	9
0	2347	3670.797248156484	10
0	2349	3675.828523197174	9
0	2352	3676.134661904383	10
0	2354	3679.546841410788	11
0	2356	3680.240199181503	12
0	2358	3684.152505381332	11
0	2361	3692.713863930139	10
0	2364	3693.950868995096	9
0	2367	3699.33880153024	8
0	2370	3702.594946785895	7
0	2373	3704.637069237611	6
0	2375	3706.416790152363	5
0	2377	3713.220380242799	4
0	2379	3716.746081635762	5
0	2382	3718.545833696822	6
0	2385	3720.861209179649	7
0	2388	3727.67093014038	8
0	2390	3730.689498765436	7
0	2393	3731.819975096437	6
0	2395	3732.571097562234	7
0	2398	3733.148366464938	6
0	2400	3747.9479619033	5
0	2402	3759.829448624241	4
0	2404	3761.163429469921	5
0	2407	3762.549746165873	4
0	2409	3764.584343405704	5
0	2412	3768.087856385956	6
0	2415	3769.844278880523	7
0	2418	3771.390884280525	6
0	2420	3780.694375632417	5
0	2422	3793.977775147487	6
0	2425	3797.120695979697	5
0	2427	3798.823582774381	4
0	2429	3810.641998841319	5
0	2432	3820.460593779385	4
0	2434	3823.516036822162	5
0	2437	3827.762385217024	6
0	2440	3835.015428448342	5
0	2442	3838.68637813801	4
0	2444	3847.212847209961	5
0	2447	3852.663112376317	6
0	2450	3856.376173942774	5
0	2452	3856.444951574561	6
0	2455	3857.918888778131	5
0	2457	3878.843308923683	4
0	2459	3880.490131742802	5
0	2462	3882.955682031817	4
0	2464	3885.230602980797	5
0	2467	3885.265332382474	6
0	2470	3886.451265774435	7
0	2473	3887.275806885908	6
0	2475	3890.041360308215	5
0	2477	3898.81847023115	6
0	2480	3899.493655307679	5
0	2482	3900.454762905786	6
0	2485	3903.980687596812	7
0	2488	3904.275804416031	6
0	2490	3917.770804882721	5
0	2492	3922.12018789144	4
0	2494	3926.690992363565	3
0	2496	3927.114982158001	4
0	2499	3945.673250931932	5
0	2502	3946.939821078549	6
0	2505	3949.250177748436	7
0	2508	3961.833430410827	6
0	2510	3962.461296877973	7
0	2513	3966.751174530945	6
0	2515	3971.039756670176	5
0	2517	3973.286898623918	4
0	2519	3977.925526077249	5
0	2522	3988.878441604102	4
0	2524	3995.281242913219	5
0	2527	3998.456009012678	4
0	2529	4002.536957273698	5
0	2532	4005.359053106045	4
0	2534	4005.980617037908	5
0	2537	4007.608980970642	4
0	2539	4009.993896283957	3
0	2541	4011.928646502604	4
0	2544	4015.148237401015	5
0	2547	4026.112730717538	6
0	2550	4032.52554612826	5
0	2552	4033.529763142502	6
0	2555	4033.535134530954	5
0	2557	4034.593267886715	4
0	2559	4035.22107966846	5
0	2562	4036.066964153337	6
0	2565	4039.62734877923	5
0	2567	4042.28275257565	4
0	2569	4044.913562520318	5
0	2572	4050.762855875989	6
0	2575	4058.598429359443	7
0	2578	4060.007024158684	8
0	2580	4062.923969439004	7
0	2583	4063.326922854682	6
0	2585	4068.472648251092	5
0	2587	4078.263111144605	6
0	2590	4082.327745891649	5
0	2592	4090.637776193272	6
0	2595	4093.342598069586	7
0	2598	4095.163867310962	6
0	2600	4096.396905901592	7
0	2603	4101.934519100379	8
0	2605	4107.006805841172	7
0	2608	4110.656347760162	6
0	2610	4119.395881585031	7
0	2613	4122.468401718423	8
0	2615	4124.007137208825	7
0	2618	4126.095985555058	8
0	2620	4126.600468994434	9
0	2622	4131.179329878106	10
0	2624	4136.824202846907	11
0	2626	4143.539838648498	12
0	2628	4144.825898301368	11
0	2631	4145.756123492627	10
0	2634	4147.182414379677	9
0	2637	4149.148288085875	10
0	2639	4154.292550445286	9
0	2642	4160.320410002788	8
0	2645	4161.226263647841	7
0	2648	4163.323369538386	6
0	2650	4164.692509488957	7
0	2653	4165.029713352978	8
0	2655	4166.192735454598	7
0	2658	4168.363914756016	6
0	2660	4174.732591090892	7
0	2663	4178.53926714094	8
0	2665	4186.244940887421	7
0	2668	4187.169488259957	6
0	2670	4191.312890379835	7
0	2673	4193.84810193119	8
0	2675	4194.312116802586	9
0	2677	4197.022146242839	8
0	2680	4200.644196706608	7
0	2683	4209.540175938269	6
0	2685	4216.611388332169	5
0	2687	4221.937601650307	6
0	2690	4225.056109090547	5
0	2692	4236.06084319515	4
0	2694	4250.993878637695	5
0	2697	4255.793059506905	4
0	2699	4256.614204962301	5
0	2702	4256.652375282654	4
0	2704	4259.604461432435	5
0	2707	4259.871865488593	6
0	2710	4264.855038555461	5
0	2712	4280.508133484235	4
0	2714	4280.969821194015	5
0	2717	4288.78823691508	6
0	2720	4300.147638225094	7
0	2723	4303.290785145473	6
0	2725	4305.217141874224	7
0	2728	4306.861312470582	6
0	2730	4308.41704769904	5
0	2732	4311.118419511957	4
0	2734	4317.970704555011	5
0	2737	4318.496949224937	6
0	2740	4320.555854893605	5
0	2742	4320.84277467485	6
0	2745	4322.505260546302	7
0	2748	4325.890742277605	6
0	2750	4327.148629265839	5
0	2752	4327.895549433931	4
0	2754	4329.518877639837	3
0	2756	4336.314047778488	4
0	2759	4338.383130456366	3
0	2761	4339.856054937466	4
0	2764	4340.597475272672	3
0	2766	4342.772627123255	4
0	2769	4345.546721785563	3
0	2771	4348.119102405045	2
0	2773	4349.166886044459	3
0	2776	4349.614839551682	2
0	2778	4361.776739265629	3
0	2781	4371.890991626732	2
0	2783	4373.510549569356	3
0	2786	4388.562196594324	4
0	2789	4388.867104277976	3
0	2791	4394.190298318638	4
0	2794	4394.651276935322	5
0	2797	4396.054205766094	4
0	2799	4396.513062143703	5
0	2802	4397.2670249968	4
0	2804	4398.794131929726	3
0	2806	4399.102491831246	4
0	2809	4402.986794814632	5
0	2812	4407.039445136618	6
0	2815	4414.114244028864	7
0	2818	4419.388041452439	8
0	2820	4419.687103522855	9
0	2822	4421.276552236965	8
0	2825	4424.23995199412	7
0	2828	4428.098220945237	6
0	2830	4432.845684250884	5
0	2832	4436.399502900885	6
0	2835	4437.147020946831	7
0	2838	4437.461498004439	6
0	2840	4438.192814481323	5
0	2842	4458.206127718507	4
0	2844	4461.121486233897	5
0	2847	4463.071874076774	4
0	2849	4466.16674906707	3
0	2851	4473.97798266922	4
0	2854	4478.713489729182	5
0	2857	4484.708760655551	4
0	2859	4485.246388756468	3
0	2861	4486.747690942421	2
0	2863	4488.429273838367	3
0	2866	4488.59062432523	4
0	2869	4490.125298715553	3
0	2871	4507.701653818649	2
0	2873	4510.178174092061	3
0	2876	4514.506491371137	2
0	2878	4521.810154130155	3
0	2881	4526.531652156582	4
0	2884	4529.036343184813	3
0	2886	4538.58696799413	4
0	2889	4538.863374037444	5
0	2892	4540.276795755123	4
0	2894	4553.748421752536	5
0	2897	4556.402246302665	6
0	2900	4559.402702980951	5
0	2902	4577.209097540769	6
0	2905	4578.287276326701	5
0	2907	4581.863391441799	6
0	2910	4582.081151806694	5
0	2912	4588.213635462443	6
0	2915	4591.354220327841	7
0	2918	4595.943659722746	8
0	2920	4602.281768610236	9
0	2922	4603.085161312828	10
0	2924	4609.258665938576	9
0	2927	4611.451695876439	10
0	2929	4613.797540236226	11
0	2931	4619.668628708255	12
0	2933	4623.440096791031	13
0	2935	4627.154782877686	12
0	2938	4628.066582399961	13
0	2940	4629.510614692104	14
0	2942	4631.665338613632	15
0	2944	4634.250705121662	16
0	2946	4635.103205479174	17
0	2948	4642.029752429176	16
0	2951	4642.447847296675	15
0	2954	4650.409161304426	16
0	2956	4654.787418525168	15
0	2959	4654.790040583387	14
0	2962	4662.039275115891	15
0	2964	4663.296317380612	14
0	2967	4668.062357417056	15
0	2969	4670.257536418983	16
0	2971	4670.677434860638	17
0	2973	4675.734344992103	16
0	2976	4691.893701809434	15
0	2979	4694.087415736307	14
0	2982	4698.516154266697	13
0	2985	4700.811652957649	14
0	2987	4702.688171075529	13
0	2990	4705.982497042492	14
0	2992	4706.048691746441	15
0	2994	4706.663491540521	14
0	2997	4714.723603678518	13
0	3000	4722.990512017849	12
0	3003	4723.931284997182	11
0	3006	4724.527475444502	10
0	3009	4727.875234938241	9
0	3012	4733.610376731906	8
0	3015	4735.288919987277	9
0	3017	4739.075227126039	10
0	3019	4743.430775378491	9
0	3022	4744.461990834584	10
0	3024	4746.901693497657	9
0	3027	4756.527068556006	8
0	3030	4758.163026698164	7
0	3033	4765.985952337392	6
0	3035	4766.915299115083	5
0	3037	4770.027025657971	4
0	3039	4770.158842979115	5
0	3042	4770.16483185859	6
0	3045	4773.707985417286	7
0	3048	4775.393920290652	8
0	3050	4779.297640362653	7
0	3053	4780.93303538677	8
0	3055	4782.015894240262	7
0	3058	4787.022297229378	8
0	3060	4788.580527265542	9
0	3062	4789.5394180133	10
0	3064	4790.049826072145	9
0	3067	4793.452150730503	8
0	3070	4797.438356391847	7
0	3073	4797.843649561358	6
0	3075	4798.071776895923	5
0	3077	4798.340541188848	6
0	3080	4800.512870637572	5
0	3082	4806.888576721847	4
0	3084	4810.467173328393	5
0	3087	4811.152254893351	6
0	3090	4812.485394595715	7
0	3093	4814.298338821143	6
0	3095	4824.736529413233	5
0	3097	4826.764255602371	4
0	3099	4833.108974281096	3
0	3101	4833.140827341135	4
0	3104	4844.289420817723	3
0	3106	4846.841033422702	2
0	3108	4849.560698416452	3
0	3111	4874.914016760422	4
0	3114	4877.660960984724	3
0	3116	4878.009813596562	4
0	3119	4880.003045602178	5
0	3122	4881.505256653574	4
0	3124	4890.652645108133	3
0	3126	4895.601657730857	2
0	3128	4898.273482924154	3
0	3131	4902.202475364786	4
0	3134	4902.547384630439	5
0	3137	4914.045585768809	4
0	3139	4918.764354561146	5
0	3142	4919.266336975875	4
0	3144	4923.334304891843	5
0	3147	4935.617106636025	6
0	3150	4940.343996628715	7
0	3153	4947.052331639547	8
0	3155	4948.612526090153	7
0	3158	4954.684858903462	8
0	3160	4958.973671330847	9
0	3162	4960.527134356735	10
0	3164	4962.69551796041	9
0	3167	4965.248600294084	8
0	3170	4973.743357636513	9
0	3172	4976.277305314522	8
0	3175	4980.691930654644	9
0	3177	4984.320051710787	8
0	3180	4986.07674766452	7
0	3183	4987.024046629985	6
0	3185	4987.079157096776	5
0	3187	4988.115532487751	6
0	3190	4991.540411730635	5
0	3192	4992.973667123502	4
0	3194	4996.491105763854	5
0	3197	4996.637319773082	4
0	3199	5000.197803297313	3
0	3201	5002.182092798157	4
0	3204	5014.687792654821	5
0	3207	5020.011392667271	4
0	3209	5020.234843521262	5
0	3212	5026.421457386658	6
0	3215	5031.946358788485	7
0	3218	5033.981390492205	6
0	3220	5034.866971501312	5
0	3222	5037.469905000728	6
0	3225	5039.842335684845	5
0	3227	5040.402294299225	6
0	3230	5040.848420187742	7
0	3233	5046.252199193154	6
0	3235	5053.165225234665	7
0	3238	5053.324254650086	8
0	3240	5059.058043022335	7
0	3243	5061.806683007354	8
0	3245	5061.87347549831	9
0	3247	5065.034679563373	8
0	3250	5067.128334811432	7
0	3253	5069.333004903739	8
0	3255	5070.143490479549	9
0	3257	5070.240398232902	10
0	3259	5073.368412797587	11
0	3261	5074.651828798985	10
0	3264	5081.457319443875	9
0	3267	5083.462551098718	10
0	3269	5085.465499376293	11
0	3271	5086.418127689394	10
0	3274	5092.145046400675	11
0	3276	5093.156865687069	10
0	3279	5094.650569879357	11
0	3281	5098.425631983929	12
0	3283	5099.086267815822	13
0	3285	5099.674152490581	12
0	3288	5100.605496490191	11
0	3291	5104.193613429135	12
0	3293	5104.613100263237	13
0	3295	5104.708833220122	12
0	3298	5107.230469366592	11
0	3301	5109.836187638029	10
0	3304	5118.001435553227	9
0	3307	5120.596082444959	10
0	3309	5124.351172053597	9
0	3312	5129.862656458572	8
0	3315	5140.931683019221	7
0	3318	5141.899523230098	6
0	3320	5147.94220445196	7
0	3323	5154.74822370514	6
0	3325	5156.534246156189	5
0	3327	5158.655378939037	4
0	3329	5163.205734329197	5
0	3332	5170.762117137078	4
0	3334	5173.887281528713	5
0	3337	5179.091110935759	4
0	3339	5180.081161791495	5
0	3342	5184.036334320135	4
0	3344	5193.846900529727	5
0	3347	5199.62568389405	6
0	3350	5203.210647624443	5
0	3352	5207.849017922707	4
0	3354	5213.112793314225	5
0	3357	5219.585593981862	6
0	3360	5221.279228840865	7
0	3363	5223.927127342985	8
0	3365	5235.982472188716	9
0	3367	5237.413114942314	8
0	3370	5245.181172529436	7
0	3373	5245.671434231199	8
0	3375	5247.774121874015	7
0	3378	5248.355242525962	6
0	3380	5256.999375826162	5
0	3382	5257.827294004281	4
0	3384	5266.075328030724	3
0	3386	5273.480300557624	2
0	3388	5274.302040182125	3
0	3391	5286.475046542573	4
0	3394	5287.196392223116	3
0	3396	5290.729857173287	4
0	3399	5292.855285544506	5
0	3402	5302.431725150025	6
0	3405	5303.816115558404	5
0	3407	5310.754974946465	6
0	3410	5311.742930481213	5
0	3412	5321.621300131449	6
0	3415	5331.399150605187	5
0	3417	5332.327130991363	4
0	3419	5335.221308577068	5
0	3422	5336.343334656177	6
0	3425	5343.520190778142	5
0	3427	5344.168849370004	6
0	3430	5346.452369422827	7
0	3433	5347.195687032821	6
0	3435	5349.963554583447	5
0	3437	5360.122117201575	4
0	3439	5367.01099451484	5
0	3442	5376.425863606661	4
0	3444	5389.813274362087	5
0	3447	5392.327488548943	4
0	3449	5395.828350199572	3
0	3451	5396.663699806835	2
0	3453	5400.039117240228	3
0	3456	5400.78045687173	2
0	3458	5410.013499831285	3
0	3461	5411.558430186995	4
0	3464	5417.814637167544	3
0	3466	5418.427697760011	2
0	3468	5424.967255333199	3
0	3471	5439.633043414877	4
0	3474	5442.626351985182	3
0	3476	5448.450156847709	4
0	3479	5448.52678238492	3
0	3481	5452.610611478627	4
0	3484	5459.629026250489	5
0	3487	5460.868841608498	4
0	3489	5460.955370211834	5
0	3492	5465.563507039039	6
0	3495	5468.88772951212	5
0	3497	5470.854676465082	4
0	3499	5470.876271560552	3
0	3501	5474.643282556985	4
0	3504	5484.720100478057	3
0	3506	5489.849293841437	4
0	3509	5490.809601384491	3
0	3511	5491.468420805255	4
0	3514	5493.240170881664	5
0	3517	5501.625630973088	4
0	3519	5507.311929782934	3
0	3521	5508.45980650198	4
0	3524	5528.43912087605	5
0	3527	5531.019913263767	6
0	3530	5535.535352394493	7
0	3533	5537.734160606866	6
0	3535	5542.189496053186	5
0	3537	5545.887592703772	4
0	3539	5553.458053122779	3
0	3541	5562.390509673768	4
0	3544	5567.919543629699	5
0	3547	5576.208748494895	4
0	3549	5578.506254337696	3
0	3551	5586.163557895352	4
0	3554	5588.001504633901	5
0	3557	5590.771797185518	6
0	3560	5600.732350421874	5
0	3562	5606.631775604311	6
0	3565	5607.119999515608	7
0	3568	5607.504817161834	8
0	3570	5610.165680974766	9
0	3572	5610.722727566835	8
0	3575	5612.054933340596	7
0	3578	5615.433574066862	6
0	3580	5624.858966145833	7
0	3583	5627.483449288465	8
0	3585	5632.484094537342	9
0	3587	5635.56772414096	8
0	3590	5639.773718731507	7
0	3593	5643.176407788393	8
0	3595	5645.502894842555	7
0	3598	5658.692449331267	8
0	3600	5669.888477474669	9
0	3602	5670.281181476487	8
0	3605	5680.874121540998	9
0	3607	5687.938732245609	10
0	3609	5691.456803248419	11
0	3611	5692.790785015107	10
0	3614	5696.457815708413	9
0	3617	5701.83228972487	8
0	3620	5704.224456044959	7
0	3623	5707.532628616588	6
0	3625	5712.807945158836	5
0	3627	5713.686966825555	4
0	3629	5726.956353022387	5
0	3632	5729.269160008666	4
0	3634	5730.646252412922	5
0	3637	5730.883796540896	4
0	3639	5735.244467710789	3
0	3641	5737.671806496802	2
0	3643	5739.369461584304	3
0	3646	5740.26020705033	2
0	3648	5743.461843813759	1
0	3650	5749.423567604054	2
0	3653	5750.763429254165	1
0	3655	5755.140143412	2
0	3658	5760.09474724345	3
0	3661	5761.619305727408	2
0	3663	5763.07961141782	1
0	3665	5788.855623456746	2
0	3668	5791.73382937259	3
0	3671	5791.785789913984	2
0	3673	5795.398325369394	3
0	3676	5796.766349344569	4
0	3679	5800.225304877571	3
0	3681	5805.370877282777	4
0	3684	5811.479926906332	5
0	3687	5812.109220402415	4
0	3689	5819.306967020811	3
0	3691	5826.08221164466	2
0	3693	5827.415795457572	3
0	3696	5829.092534515309	2
0	3698	5832.648040279301	3
0	3701	5832.666829188332	2
0	3703	5836.188225060444	3
0	3706	5840.911600899652	4
0	3709	5849.069808499637	5
0	3712	5853.490830115765	6
0	3715	5856.61559050963	5
0	3717	5865.651441847212	4
0	3719	5866.039402568972	5
0	3722	5867.351502810377	4
0	3724	5887.491968457891	5
0	3727	5890.270448595048	4
0	3729	5892.270964084592	3
0	3731	5894.484140755705	2
0	3733	5905.706682332446	3
0	3736	5907.347128584972	4
0	3739	5915.178079271048	5
0	3742	5922.06500869884	6
0	3745	5924.695293347794	5
0	3747	5935.294784596914	6
0	3750	5943.875882962695	7
0	3753	5945.159866929606	8
0	3755	5949.64452733974	7
0	3758	5950.016878877454	6
0	3760	5950.5185064318	5
0	3762	5952.434801697012	4
0	3764	5953.659466994401	5
0	3767	5958.643523335005	4
0	3769	5963.018676696225	5
0	3772	5969.100639334299	4
0	3774	5969.157672774844	5
0	3777	5970.103879264051	6
0	3780	5970.279200391709	5
0	3782	5974.459011131218	4
0	3784	5989.751052273231	3
0	3786	5992.689174031021	2
0	3788	6001.051511052142	3
0	3791	6006.28667505618	4
0	3794	6008.239359662895	5
0	3797	6012.259157701801	6
0	3800	6013.988202451044	7
0	3803	6014.698260817838	8
0	3805	6020.857921575787	9
0	3807	6021.497177964085	8
0	3810	6027.225962628611	7
0	3813	6027.898020535125	8
0	3815	6050.011204153785	7
0	3818	6050.195387876273	6
0	3820	6052.28392986773	5
0	3822	6054.691226916132	4
0	3824	6062.983460010111	5
0	3827	6064.339394051011	6
0	3830	6064.922524135689	5
0	3832	6065.035954254401	4
0	3834	6066.569139634227	5
0	3837	6074.584392167608	4
0	3839	6078.224998350436	5
0	3842	6078.422345128395	4
0	3844	6089.088261876188	5
0	3847	6092.007865975423	6
0	3850	6092.165479109629	5
0	3852	6093.67490592972	6
0	3855	6097.398735256808	7
0	3858	6101.07082042026	6
0	3860	6108.479552303426	5
0	3862	6127.399400050104	6
0	3865	6128.726197194826	7
0	3868	6131.173844165982	6
0	3870	6133.273958131875	7
0	3873	6146.673579691411	6
0	3875	6147.178363304391	5
0	3877	6152.592436018625	6
0	3880	6158.616361740956	7
0	3883	6160.663002842574	8
0	3885	6162.923215625652	9
0	3887	6163.907173402998	8
0	3890	6165.793547294491	7
0	3893	6171.628136114431	6
0	3895	6181.532288360231	5
0	3897	6182.184300345965	6
0	3900	6183.776469183137	7
0	3903	6184.17602697616	8
0	3905	6189.117329455439	7
0	3908	6200.883184263184	8
0	3910	6202.616576780608	9
0	3912	6202.922004920245	8
0	3915	6209.857062829797	7
0	3918	6215.862451449862	6
0	3920	6220.328679816114	5
0	3922	6234.707545395918	6
0	3925	6238.782272234392	7
0	3928	6239.400768326122	6
0	3930	6240.450260954801	5
0	3932	6242.334072798043	4
0	3934	6252.278143440466	5
0	3937	6252.406551176815	6
0	3940	6253.437228978763	7
0	3943	6257.299003495185	8
0	3945	6259.431696052461	9
0	3947	6262.567615416051	8
0	3950	6268.890651534613	7
0	3953	6269.25077797832	6
0	3955	6274.689179385264	5
0	3957	6280.480322537706	4
0	3959	6281.569942227806	3
0	3961	6292.311835302787	2
0	3963	6296.762304015152	3
0	3966	6298.009802097506	2
0	3968	6298.201669747732	1
0	3970	6300.253231283122	2
0	3973	6304.763397232262	3
0	3976	6304.903167627796	2
0	3978	6307.948779408147	3
0	3981	6308.218165467797	4
0	3984	6311.080507795168	3
0	3986	6311.464865353705	4
0	3989	6313.574694791488	5
0	3992	6314.352330253256	4
0	3994	6315.288253654358	3
0	3996	6318.724576979982	4
0	3999	6322.770642187807	5
0	4002	6324.542503212446	4
0	4004	6328.896458769523	3
0	4006	6333.051967443207	4
0	4009	6337.716881118043	3
0	4011	6344.745531347233	4
0	4014	6347.545885105609	5
0	4017	6351.444283813355	4
0	4019	6354.075310535955	3
0	4021	6355.608719615099	4
0	4024	6359.684324585968	5
0	4027	6361.491607851223	6
0	4030	6362.561099531024	5
0	4032	6362.961567931251	4
0	4034	6366.849020949954	3
0	4036	6369.178459339188	2
0	4038	6375.630631257985	1
0	4040	6381.291897195544	2
0	4043	6385.517316425979	1
0	4045	6389.595418316104	2
0	4048	6397.700097834319	3
0	4051	6401.082089719074	2
0	4053	6407.771585717052	1
0	4055	6413.937897125542	0
0	4057	6415.106325383685	1
0	4060	6418.200910747778	0
0	4062	6422.100347269324	1
0	4065	6427.534357374309	2
0	4068	6432.367000586279	3
0	4071	6438.636783325	4
0	4074	6451.937317202323	5
0	4077	6452.80183379384	6
0	4080	6457.524606053477	5
0	4082	6459.307134881819	6
0	4085	6461.191266582732	5
0	4087	6461.819172671968	6
0	4090	6467.648238118303	5
0	4092	6472.205321581558	4
0	4094	6476.691723918986	5
0	4097	6479.230657583306	6
0	4100	6480.437571765635	5
0	4102	6480.900514647881	6
0	4105	6491.531186536988	5
0	4107	6492.431211450889	6
0	4110	6498.599419736736	5
0	4112	6509.34499113532	4
0	4114	6513.548632946133	5
0	4117	6520.750737326605	6
0	4120	6542.150307821375	7
0	4123	6544.022659061042	6
0	4125	6550.016994150551	5
0	4127	6555.629048118681	6
0	4130	6558.284954777823	5
0	4132	6558.51402286446	4
0	4134	6563.141872262234	5
0	4137	6576.301086064058	6
0	4140	6581.387211718928	7
0	4143	6582.213614042655	6
0	4145	6583.8561627707	7
0	4148	6584.379339837392	6
0	4150	6588.391989848664	7
0	4153	6588.636989134492	8
0	4155	6589.754143784291	9
0	4157	6596.61031849532	8
0	4160	6597.438730604662	9
0	4162	6600.061432376281	10
0	4164	6600.82933535425	9
0	4167	6610.378964032481	8
0	4170	6613.029138579591	9
0	4172	6614.710623275081	8
0	4175	6626.781281240048	7
0	4178	6633.096435852614	8
0	4180	6635.75368393636	9
0	4182	6636.00418649793	10
0	4184	6643.029432019166	9
0	4187	6648.539111901462	8
0	4190	6653.552958883658	7
0	4193	6665.396991062855	8
0	4195	6665.725880236079	7
0	4198	6665.87179434797	8
0	4200	6667.64906560648	9
0	4202	6668.487348679144	10
0	4204	6673.069319640685	11
0	4206	6674.117342244854	12
0	4208	6681.472010478602	11
0	4211	6684.015364361411	10
0	4214	6686.114517748399	9
0	4217	6689.743393791967	8
0	4220	6690.474437258982	9
0	4222	6705.83949312766	10
0	4224	6708.581373613096	11
0	4226	6708.604819670938	12
0	4228	6712.036820000749	13
0	4230	6713.652346602782	14
0	4232	6714.111603152455	15
0	4234	6716.037293027287	14
0	4237	6718.041865042484	13
0	4240	6721.81709905023	12
0	4243	6729.620787662965	11
0	4246	6731.878190647574	10
0	4249	6731.986782152194	11
0	4251	6734.879882107056	10
0	4254	6738.091963792932	9
0	4257	6742.946057766828	10
0	4259	6745.099447459487	9
0	4262	6745.868290208359	8
0	4265	6747.533530053863	7
0	4268	6747.677437867995	6
0	4270	6756.268596743157	5
0	4272	6761.711249135069	6
0	4275	6761.802748473138	7
0	4278	6765.045305276242	6
0	4280	6765.432414550318	7
0	4283	6772.576152128008	6
0	4285	6777.874678478902	5
0	4287	6786.965974915495	4
0	4289	6787.893986625784	5
0	4292	6793.644856736579	4
0	4294	6794.420604109501	3
0	4296	6800.516644520772	4
0	4299	6806.26265228265	3
0	4301	6812.012883014358	2
0	4303	6819.210003257045	3
0	4306	6843.736924660231	4
0	4309	6845.127196709111	3
0	4311	6848.910915128336	2
0	4313	6855.359802644638	1
0	4315	6858.72622349772	2
0	4318	6858.99102763561	3
0	4321	6865.112656367639	2
0	4323	6888.606059944187	3
0	4326	6898.05794710112	2
0	4328	6904.687458370655	1
0	4330	6908.447788297833	2
0	4333	6909.252824323625	1
0	4335	6911.11418301785	2
0	4338	6925.746438243867	3
0	4341	6929.422232484547	2
0	4343	6933.353529931759	3
0	4346	6938.755431642154	2
0	4348	6957.474069427689	1
0	4350	6966.655590810129	2
0	4353	6970.204556765318	3
0	4356	6975.306515517438	4
0	4359	6975.326128320702	5
0	4362	6981.105569736316	4
0	4364	6983.997547515272	3
0	4366	6984.110653459601	2
0	4368	6989.776242745194	3
0	4371	6990.339256817007	2
0	4373	6990.387050787234	1
0	4375	6991.251436229081	2
0	4378	6995.578894786237	1
0	4380	6996.155306419589	0
0	4382	6997.149447761155	1
0	4385	6998.534123793141	2
0	4388	6998.773942745018	3
0	4391	7004.980384633878	4
0	4394	7005.050022468314	5
0	4397	7011.085850436812	4
0	4399	7012.832710415779	3
0	4401	7012.88514309913	4
0	4404	7013.162477659471	3
0	4406	7028.936884677569	4
0	4409	7043.666662247416	3
0	4411	7048.184382447423	4
0	4414	7050.296158019149	3
0	4416	7052.63677696272	4
0	4419	7056.813360284084	5
0	4422	7058.706074764349	4
0	4424	7059.225757878022	3
0	4426	7061.96297529509	4
0	4429	7064.085584543267	5
0	4432	7064.541903046821	6
0	4435	7068.017066943474	5
0	4437	7071.023596484064	4
0	4439	7072.616114010912	3
0	4441	7080.469665851151	4
0	4444	7083.972188791524	5
0	4447	7085.327321095095	6
0	4450	7088.735306148167	5
0	4452	7088.749714253711	6
0	4455	7097.35731081173	7
0	4458	7099.895496197449	8
0	4460	7103.916531639409	7
0	4463	7108.459638910931	8
0	4465	7109.532431586694	7
0	4468	7110.932047773777	6
0	4470	7112.944163768637	5
0	4472	7116.364353372768	4
0	4474	7118.565148238355	5
0	4477	7119.729305955447	6
0	4480	7123.140596663621	7
0	4483	7131.330104664045	6
0	4485	7139.70202690384	7
0	4488	7143.830158543823	6
0	4490	7144.08910045292	5
0	4492	7152.674387329645	6
0	4495	7154.952395969386	5
0	4497	7159.793223763754	6
0	4500	7162.916486643851	5
0	4502	7166.527962447231	6
0	4505	7170.268628052424	7
0	4508	7176.091685773328	6
0	4510	7180.149893677019	7
0	4513	7181.237153145933	6
0	4515	7188.74702024696	5
0	4517	7190.135029238067	6
0	4520	7192.218222467108	5
0	4522	7194.090968128962	6
0	4525	7210.720925660577	7
0	4528	7211.894263872026	8
0	4530	7216.097188328036	7
0	4533	7218.830374873279	8
0	4535	7220.543244558969	7
0	4538	7221.377128553758	8
0	4540	7222.858132669895	7
0	4543	7228.796587881185	8
0	4545	7235.893445271632	9
0	4547	7236.658038547213	10
0	4549	7245.019374772554	9
0	4552	7247.596247807039	8
0	4555	7252.506400808012	7
0	4558	7252.970936480483	6
0	4560	7256.018398151033	7
0	4563	7263.330814494364	8
0	4565	7263.495176140941	7
0	4568	7274.427789362183	8
0	4570	7278.656368011854	7
0	4573	7279.143769569318	8
0	4575	7279.993647208865	7
0	4578	7282.752335756837	8
0	4580	7284.838761864479	7
0	4583	7285.694793057815	8
0	4585	7288.76287628447	9
0	4587	7297.918616260653	10
0	4589	7302.525151824711	11
0	4591	7307.740053089997	12
0	4593	7312.175386706156	13
0	4595	7316.107600722572	14
0	4597	7318.688676884759	13
0	4600	7321.157162482297	12
0	4603	7324.281308888536	11
0	4606	7325.625643306051	10
0	4609	7328.055690877978	9
0	4612	7330.19407481716	10
0	4614	7333.885884466709	11
0	4616	7336.854966717527	10
0	4619	7337.033237267379	9
0	4622	7338.667189326605	8
0	4625	7342.813187585638	7
0	4628	7346.54505276909	8
0	4630	7349.057892840581	9
0	4632	7351.439345338944	10
0	4634	7351.784057357355	11
0	4636	7353.778588385802	10
0	4639	7355.941578417222	11
0	4641	7356.367790094338	10
0	4644	7358.078914516766	11
0	4646	7362.366856396281	10
0	4649	7363.513493383197	9
0	4652	7364.432276749858	10
0	4654	7366.493651822423	9
0	4657	7368.529254507796	8
0	4660	7370.020723382033	9
0	4662	7370.816100218358	8
0	4665	7374.520012172082	7
0	4668	7377.921741085561	8
0	4670	7378.025248558734	7
0	4673	7382.508447503	8
0	4675	7383.675196107548	9
0	4677	7385.136523672369	10
0	4679	7392.026726230424	9
0	4682	7393.910962836177	10
0	4684	7395.347322361606	9
0	4687	7397.006264325505	8
0	4690	7398.842305653834	7
0	4693	7398.882763306835	6
0	4695	7401.723291404831	7
0	4698	7401.925937190968	8
0	4700	7402.760361030257	9
0	4702	7411.758187101594	8
0	4705	7412.758607485022	7
0	4708	7413.42312084331	6
0	4710	7423.660855270684	7
0	4713	7426.481586154594	8
0	4715	7427.138750869749	7
0	4718	7427.726303581899	8
0	4720	7429.113507070092	7
0	4723	7430.546975157555	6
0	4725	7430.888340201109	5
0	4727	7432.007163385399	4
0	4729	7432.531553780826	3
0	4731	7432.717303301244	4
0	4734	7437.404650482709	3
0	4736	7437.691652170278	2
0	4738	7438.394097547192	3
0	4741	7439.640769809593	2
0	4743	7449.955668630508	3
0	4746	7454.773445017621	4
0	4749	7464.019354770432	5
0	4752	7469.216151615524	6
0	4755	7470.174200797865	5
0	4757	7476.477358268101	4
0	4759	7478.276606827396	5
0	4762	7489.708030118442	4
0	4764	7499.471533604673	3
0	4766	7503.830007884643	4
0	4769	7519.81141031073	5
0	4772	7520.29982560655	4
0	4774	7527.016590028379	5
0	4777	7535.026214854266	4
0	4779	7542.197594675301	5
0	4782	7546.41418726804	4
0	4784	7548.427835229493	3
0	4786	7550.246971569488	2
0	4788	7550.373309858252	3
0	4791	7551.355302867291	4
0	4794	7554.005757303487	5
0	4797	7554.837171338969	4
0	4799	7555.188476463038	3
0	4801	7565.500883901684	4
0	4804	7574.177224325194	5
0	4807	7574.711060544729	6
0	4810	7580.716534433466	5
0	4812	7596.481211540239	4
0	4814	7600.377383706186	5
0	4817	7603.014117472903	4
0	4819	7615.461700701872	3
0	4821	7616.389615239125	4
0	4824	7619.315607971924	3
0	4826	7622.798044277545	4
0	4829	7624.473268547254	3
0	4831	7625.655278027802	2
0	4833	7626.252775138501	3
0	4836	7626.883346750867	4
0	4839	7631.310286621033	5
0	4842	7633.933720657849	4
0	4844	7637.768015733123	3
0	4846	7639.200257829692	2
0	4848	7641.564582998002	3
0	4851	7641.814955552282	4
0	4854	7643.44655414764	3
0	4856	7645.362380958396	4
0	4859	7646.586049607355	3
0	4861	7648.465236773994	4
0	4864	7658.341044618333	3
0	4866	7658.503836344507	4
0	4869	7662.678888269482	3
0	4871	7663.950844013474	4
0	4874	7667.60080645309	3
0	4876	7676.78887764325	4
0	4879	7679.909775117396	5
0	4882	7690.0287191934	4
0	4884	7694.671266243582	5
0	4887	7695.905772795967	6
0	4890	7696.156647638714	7
0	4893	7703.620043805761	8
0	4895	7705.114646426817	7
0	4898	7706.710181344822	8
0	4900	7709.00587914797	7
0	4903	7713.311394017104	8
0	4905	7716.965924679555	7
0	4908	7717.106981570005	6
0	4910	7723.552399616411	7
0	4913	7740.726786277193	6
0	4915	7750.913065278838	5
0	4917	7767.854600618009	4
0	4919	7770.224092876147	3
0	4921	7773.482398473303	2
0	4923	7777.681894538615	3
0	4926	7791.140334629638	4
0	4929	7804.919529973901	5
0	4932	7807.734950950172	4
0	4934	7807.999688674613	5
0	4937	7820.901880203338	6
0	4940	7833.535526774472	5
0	4942	7839.317980762743	4
0	4944	7845.377034548492	3
0	4946	7849.181943869771	4
0	4949	7870.707818290985	3
0	4951	7875.05532611141	4
0	4954	7883.343846496796	5
0	4957	7884.145788100776	6
0	4960	7887.753676189206	7
0	4963	7894.892380468893	6
0	4965	7897.818575941615	7
0	4968	7899.152295941945	6
0	4970	7899.73264179917	7
0	4973	7900.204809422468	8
0	4975	7900.577190836399	9
0	4977	7902.756324501343	8
0	4980	7911.925941614735	7
0	4983	7912.011045158632	6
0	4985	7917.569521797211	7
0	4988	7919.322173210724	6
0	4990	7922.680885248092	7
0	4993	7929.517116288618	8
0	4995	7930.9200862824	7
0	4998	7930.998856413165	6
0	5000	7933.869166654068	7
0	5003	7934.194699610832	8
0	5005	7938.002759455615	9
0	5007	7938.506988721575	8
0	5010	7947.915550200425	7
0	5013	7948.295558915288	8
0	5015	7950.855650204895	7
0	5018	7953.666670313977	8
0	5020	7954.674873284838	9
0	5022	7955.468359613987	10
0	5024	7958.910285913119	11
0	5026	7959.350576508711	10
0	5029	7967.515115096904	9
0	5032	7971.062980784726	10
0	5034	7972.418924892465	9
0	5037	7980.618757363129	8
0	5040	7991.924480052506	9
0	5042	7992.675627442077	8
0	5045	7995.140321954083	9
0	5047	7999.34025679378	8
0	5050	8002.118135588744	7
0	5053	8004.587759293652	6
0	5055	8005.597273552228	7
0	5058	8006.277059530147	8
0	5060	8007.473865134991	9
0	5062	8008.017728676831	8
0	5065	8012.488754510201	7
0	5068	8019.143513423622	8
0	5070	8023.92968477973	7
0	5073	8025.817488972352	6
0	5075	8026.230218642849	5
0	5077	8034.477831454836	4
0	5079	8034.564213647663	3
0	5081	8044.736125148693	4
0	5084	8049.525426642437	5
0	5087	8050.073893910426	4
0	5089	8060.032173846127	5
0	5092	8060.868956958174	4
0	5094	8061.779794423211	3
0	5096	8064.393440843535	4
0	5099	8067.231002824679	3
0	5101	8068.426810767123	4
0	5104	8069.012132089456	3
0	5106	8070.791915227535	2
0	5108	8077.224065314588	3
0	5111	8078.351265137963	4
0	5114	8084.311346672063	3
0	5116	8088.772986829086	4
0	5119	8090.329791868017	3
0	5121	8097.16818150082	4
0	5124	8099.064296488161	3
0	5126	8099.919804365948	2
0	5128	8101.792776992764	1
0	5130	8113.016789121554	2
0	5133	8114.803766013758	1
0	5135	8116.647042441895	2
0	5138	8118.525774917551	3
0	5141	8121.173512641016	4
0	5144	8123.334375987559	5
0	5147	8127.998517695633	6
0	5150	8132.011994623845	5
0	5152	8135.523952073043	4
0	5154	8136.668065191343	5
0	5157	8138.704346815051	4
0	5159	8142.233059459747	3
0	5161	8152.302771291632	4
0	5164	8155.514730919545	5
0	5167	8158.800445448543	6
0	5170	8158.992169838571	5
0	5172	8159.903515232044	6
0	5175	8160.462823704368	7
0	5178	8161.395950746354	8
0	5180	8161.52410234924	7
0	5183	8161.635420722161	6
0	5185	8163.520417175122	5
0	5187	8163.763692503912	6
0	5190	8166.04911875758	7
0	5193	8168.114755943329	6
0	5195	8171.232781975691	5
0	5197	8171.83297602768	6
0	5200	8172.525544489116	7
0	5203	8177.244000402939	8
0	5205	8178.956550699498	7
0	5208	8191.278569614353	8
0	5210	8194.942522819162	9
0	5212	8201.450371214456	8
0	5215	8209.293717429905	7
0	5218	8210.38635880211	8
0	5220	8215.133948495961	7
0	5223	8218.953450749924	6
0	5225	8220.942903829275	7
0	5228	8222.171451687139	8
0	5230	8225.941630140907	7
0	5233	8231.689523303792	8
0	5235	8234.997089981721	9
0	5237	8236.559853602888	10
0	5239	8237.327397736869	9
0	5242	8238.896963161	8
0	5245	8239.947492916669	7
0	5248	8248.714155654011	6
0	5250	8253.410511661058	5
0	5252	8255.911639128486	4
0	5254	8256.840606178231	5
0	5257	8257.76877254246	6
0	5260	8262.325922251967	7
0	5263	8263.93880328559	8
0	5265	8265.234019324338	9
0	5267	8269.325767796466	8
0	5270	8269.439493151069	7
0	5273	8270.661028330263	6
0	5275	8270.76640101796	5
0	5277	8274.027521798586	4
0	5279	8275.701603377367	3
0	5281	8276.81918724593	4
0	5284	8280.043658593082	5
0	5287	8289.757802513157	4
0	5289	8292.543396914229	5
0	5292	8302.872691712288	6
0	5295	8305.12444600799	5
0	5297	8306.336206390803	4
0	5299	8310.451478531815	3
0	5301	8312.492162456188	4
0	5304	8313.068904327838	3
0	5306	8314.085209926651	2
0	5308	8314.195441020054	3
0	5311	8324.386293351221	2
0	5313	8337.001657662222	3
0	5316	8337.343716505186	4
0	5319	8338.311225270847	5
0	5322	8338.708599580627	4
0	5324	8343.14798770588	3
0	5326	8344.406991611436	4
0	5329	8346.427991904952	5
0	5332	8346.601315527395	4
0	5334	8351.700326320752	5
0	5337	8352.684115965807	6
0	5340	8354.27470086837	5
0	5342	8356.883509250699	6
0	5345	8361.575993093635	7
0	5348	8369.21332508895	6
0	5350	8371.507696083924	5
0	5352	8374.112598942471	6
0	5355	8383.566379988	5
0	5357	8387.847716787535	6
0	5360	8388.107068906948	7
0	5363	8388.827742147823	8
0	5365	8389.729572201157	7
0	5368	8394.1308780711	8
0	5370	8397.347392627953	9
0	5372	8402.825190138791	10
0	5374	8409.406870617829	11
0	5376	8413.334473606482	10
0	5379	8418.735409846362	9
0	5382	8418.896231206292	8
0	5385	8420.788425214933	9
0	5387	8426.442948366092	8
0	5390	8436.435678176344	9
0	5392	8436.812806120169	8
0	5395	8441.094875725746	7
0	5398	8441.796631483002	6
0	5400	8445.23240178028	7
0	5403	8446.675738735261	6
0	5405	8449.401823297795	7
0	5408	8450.023402128298	8
0	5410	8457.764220334243	9
0	5412	8459.06684015248	8
0	5415	8462.693109799849	9
0	5417	8464.468214110076	8
0	5420	8464.646513378653	9
0	5422	8465.076646342609	8
0	5425	8466.861071936477	7
0	5428	8468.553967286685	6
0	5430	8468.625648955959	7
0	5433	8469.384017758709	8
0	5435	8470.161120296081	7
0	5438	8470.505325074035	8
0	5440	8475.942791912738	7
0	5443	8477.062061312694	6
0	5445	8478.33557910294	5
0	5447	8480.19846820669	6
0	5450	8481.526029082661	5
0	5452	8483.318426550956	4
0	5454	8487.820515747113	5
0	5457	8508.140682911692	6
0	5460	8514.098815776113	5
0	5462	8514.702675591123	6
0	5465	8521.607858776039	7
0	5468	8528.877528928189	6
0	5470	8532.762302868669	5
0	5472	8536.757134370449	4
0	5474	8541.815878880003	5
0	5477	8547.002839591651	6
0	5480	8549.827453506005	7
0	5483	8553.625292424185	6
0	5485	8562.396880888843	5
0	5487	8566.955104285142	6
0	5490	8569.684374491151	5
0	5492	8573.247532341065	4
0	5494	8574.23878731703	5
0	5497	8576.811163181334	4
0	5499	8580.526998637536	5
0	5502	8581.005397765003	6
0	5505	8582.960966159089	5
0	5507	8584.192575834695	4
0	5509	8591.973061623173	3
0	5511	8597.521773069794	4
0	5514	8602.904532739194	5
0	5517	8603.130034540964	4
0	5519	8603.786998858786	5
0	5522	8604.206857023266	6
0	5525	8611.475462802281	7
0	5528	8613.194929468107	6
0	5530	8619.909458084398	5
0	5532	8624.107035715566	6
0	5535	8625.043785830993	7
0	5538	8625.202942709883	8
0	5540	8625.270106837368	7
0	5543	8633.919289004697	8
0	5545	8635.465126617165	7
0	5548	8643.546505928894	6
0	5550	8645.184321394953	7
0	5553	8647.178949255539	6
0	5555	8659.597984375449	7
0	5558	8659.777374143666	6
0	5560	8673.50652798246	5
0	5562	8675.17455006961	4
0	5564	8681.280621887483	5
0	5567	8681.52216272455	4
0	5569	8684.329940455328	5
0	5572	8685.709767926275	6
0	5575	8689.428257682551	7
0	5578	8690.947111011838	6
0	5580	8693.85156195117	7
0	5583	8693.924450436353	8
0	5585	8698.571507165705	7
0	5588	8701.331188500238	6
0	5590	8710.01045110853	5
0	5592	8719.620452190279	4
0	5594	8724.079766946414	3
0	5596	8757.46985318473	2
0	5598	8761.198244479585	3
0	5601	8762.585358198534	2
0	5603	8764.585426835145	3
0	5606	8766.991407683908	2
0	5608	8789.218768769557	3
0	5611	8801.065903891703	2
0	5613	8807.821569532999	1
0	5615	8827.765729445975	2
0	5618	8829.448163166179	3
0	5621	8831.886946764499	2
0	5623	8832.884918616548	3
0	5626	8839.838754779332	4
0	5629	8841.283468003118	3
0	5631	8843.533287209896	4
0	5634	8843.747173683196	3
0	5636	8850.057959084228	4
0	5639	8850.661025597994	5
0	5642	8850.666813199091	6
0	5645	8851.314944290043	5
0	5647	8868.922068049126	6
0	5650	8871.173230508931	7
0	5653	8871.377674486944	6
0	5655	8879.414931090256	7
0	5658	8884.823146532194	6
0	5660	8886.497470054645	7
0	5663	8886.877601266121	8
0	5665	8887.03664354104	9
0	5667	8890.819920270655	8
0	5670	8892.908086181207	9
0	5672	8900.008802179041	8
0	5675	8905.957992184083	7
0	5678	8908.361907827153	8
0	5680	8910.290913187043	9
0	5682	8911.251524998497	8
0	5685	8917.461639196609	9
0	5687	8921.096373701699	10
0	5689	8921.19427440558	9
0	5692	8926.146785005903	8
0	5695	8927.562208228415	9
0	5697	8943.267536606647	8
0	5700	8946.90984571737	7
0	5703	8948.769200285448	6
0	5705	8954.383343008956	7
0	5708	8955.39376793749	6
0	5710	8962.308951852677	7
0	5713	8968.699040683154	6
0	5715	8971.134366574952	5
0	5717	8981.237298391077	6
0	5720	8981.529994780848	7
0	5723	8982.208311661162	6
0	5725	8986.446719881869	5
0	5727	8986.841541666131	4
0	5729	8991.84055819107	5
0	5732	8999.736722529803	6
0	5735	9000.429107713959	5
0	5737	9007.662471771817	6
0	5740	9017.666808830787	7
0	5743	9020.949916638939	6
0	5745	9025.53606328153	7
0	5748	9029.312496591754	6
0	5750	9032.391078848887	5
0	5752	9032.859325716242	4
0	5754	9035.477454169468	3
0	5756	9037.372916845358	4
0	5759	9039.56559094119	3
0	5761	9047.190421178757	4
0	5764	9050.479351930182	5
0	5767	9053.188549779675	4
0	5769	9054.550997739698	5
0	5772	9058.79190488163	6
0	5775	9059.655563532032	7
0	5778	9062.628242840261	8
0	5780	9064.695446215346	7
0	5783	9070.802818951704	6
0	5785	9072.011080824639	5
0	5787	9073.209938661156	4
0	5789	9078.153525786068	3
0	5791	9090.928825105972	2
0	5793	9096.583966331588	3
0	5796	9097.32730005557	2
0	5798	9108.498869382705	3
0	5801	9116.537701163815	4
0	5804	9116.751684280093	5
0	5807	9118.145367751126	4
0	5809	9127.019654320242	3
0	5811	9127.851951047469	4
0	5814	9132.832141660696	5
0	5817	9136.846536131281	4
0	5819	9144.779367174186	3
0	5821	9146.640372632896	4
0	5824	9147.983181640876	3
0	5826	9149.944263595665	4
0	5829	9151.187321684566	3
0	5831	9159.836226020615	4
0	5834	9172.812449022557	5
0	5837	9173.552704293959	6
0	5840	9175.759653811313	5
0	5842	9178.976889670427	4
0	5844	9179.363503760415	5
0	5847	9185.437813284163	4
0	5849	9187.253831550927	3
0	5851	9187.830528132595	2
0	5853	9201.277727846129	3
0	5856	9213.134924342304	4
0	5859	9213.293890919764	5
0	5862	9216.324405767225	6
0	5865	9217.197505643752	7
0	5868	9217.605802230691	8
0	5870	9217.821475366948	9
0	5872	9219.202885031984	8
0	5875	9228.302485788704	9
0	5877	9233.235054813952	8
0	5880	9237.508101942472	9
0	5882	9237.646707483513	8
0	5885	9238.165073552873	9
0	5887	9244.316641845996	8
0	5890	9259.851238913286	7
0	5893	9267.423754720162	6
0	5895	9272.427028845277	7
0	5898	9273.011752462715	6
0	5900	9273.049349071686	5
0	5902	9277.636258848295	6
0	5905	9278.580217093411	7
0	5908	9282.35018570391	6
0	5910	9309.957580376255	5
0	5912	9326.558584184591	4
0	5914	9328.12596428304	3
0	5916	9339.998381951901	2
0	5918	9340.727443180565	3
0	5921	9343.633155402064	2
0	5923	9344.227589576421	3
0	5926	9350.708666763744	4
0	5929	9355.675636909354	3
0	5931	9359.731261286088	2
0	5933	9367.98011259868	1
0	5935	9377.341223399402	2
0	5938	9382.142402207755	3
0	5941	9389.515446135952	4
0	5944	9398.711923239853	5
0	5947	9404.444143972385	6
0	5950	9408.799383933183	5
0	5952	9409.587684537995	6
0	5955	9410.004736751396	7
0	5958	9411.602096028563	6
0	5960	9414.454004489898	5
0	5962	9415.238501435979	6
0	5965	9416.004364330132	7
0	5968	9416.986476381772	6
0	5970	9417.011047077072	5
0	5972	9420.772369728473	4
0	5974	9426.875610343932	3
0	5976	9434.870457942664	4
0	5979	9447.229734498518	5
0	5982	9447.351059703222	6
0	5985	9448.834509959665	7
0	5988	9449.377170838218	6
0	5990	9449.811772886953	5
0	5992	9451.589999768927	4
0	5994	9458.896520673738	3
0	5996	9472.576409646638	4
0	5999	9473.500499114105	3
0	6001	9483.175922600365	4
0	6004	9485.970611549041	5
0	6007	9488.169900223728	6
0	6010	9488.689288079943	5
0	6012	9498.176707769285	6
0	6015	9500.462516589688	5
0	6017	9502.0177096511	6
0	6020	9506.495359144395	5
0	6022	9523.835114437444	6
0	6025	9528.601739329652	5
0	6027	9531.237909939331	6
0	6030	9538.614062380282	7
0	6033	9543.114339600157	8
0	6035	9544.32082821872	9
0	6037	9544.710656843703	8
0	6040	9545.840645970691	7
0	6043	9548.217763697606	6
0	6045	9550.773134507268	5
0	6047	9553.066584372238	6
0	6050	9554.796195165561	5
0	6052	9564.276839968864	4
0	6054	9565.715436426898	3
0	6056	9570.807314651178	2
0	6058	9573.904813849241	1
0	6060	9581.302472995384	2
0	6063	9593.855111484178	3
0	6066	9596.789992659696	2
0	6068	9596.953340551705	3
0	6071	9604.41189139464	2
0	6073	9609.790858329632	3
0	6076	9613.157351018287	2
0	6078	9616.060948773986	3
0	6081	9623.924770097275	4
0	6084	9635.331829776585	3
0	6086	9637.48724277855	2
0	6088	9638.011724891536	3
0	6091	9639.519439479257	2
0	6093	9640.027369253416	3
0	6096	9642.453970744624	4
0	6099	9643.3026188739	5
0	6102	9652.5823977064	6
0	6105	9652.67840497351	5
0	6107	9657.220406932287	6
0	6110	9661.073771682524	5
0	6112	9670.149559833172	4
0	6114	9670.448504248446	5
0	6117	9675.051997233114	4
0	6119	9677.318942945898	3
0	6121	9678.085525763363	4
0	6124	9681.144505259439	3
0	6126	9685.295815822507	4
0	6129	9695.936465156769	3
0	6131	9697.888759239572	2
0	6133	9704.300984999815	1
0	6135	9704.615313177991	2
0	6138	9714.578835344145	3
0	6141	9716.677934636523	4
0	6144	9727.00157828759	5
0	6147	9730.605940611404	4
0	6149	9735.529953398705	5
0	6152	9736.103766135037	6
0	6155	9737.080207165584	5
0	6157	9737.280677644165	6
0	6160	9738.876839914303	7
0	6163	9739.920726362481	8
0	6165	9744.68880880625	7
0	6168	9747.179390003927	8
0	6170	9747.391259409268	9
0	6172	9749.63358471104	10
0	6174	9749.721115845367	11
0	6176	9757.470694096471	10
0	6179	9764.901918519265	11
0	6181	9767.099363086683	10
0	6184	9770.478846006392	11
0	6186	9772.946926504745	10
0	6189	9779.443582603442	9
0	6192	9781.912664739471	8
0	6195	9785.918029530427	7
0	6198	9788.290685011513	6
0	6200	9793.824295280282	7
0	6203	9793.97646374178	6
0	6205	9796.22970880515	7
0	6208	9796.455642783112	8
0	6210	9798.749707302835	9
0	6212	9801.733150193515	10
0	6214	9805.184834089292	11
0	6216	9807.261991374511	10
0	6219	9813.786384336628	9
0	6222	9816.389408763652	8
0	6225	9818.366985674103	9
0	6227	9821.486465012682	8
0	6230	9823.951467781977	7
0	6233	9826.733052889002	6
0	6235	9838.123648370801	5
0	6237	9838.633950547894	6
0	6240	9839.588117429345	5
0	6242	9846.819991353767	4
0	6244	9850.16333148218	3
0	6246	9851.514512245335	2
0	6248	9852.005892410096	3
0	6251	9853.305764806103	4
0	6254	9856.102742821288	3
0	6256	9857.55039961802	4
0	6259	9858.988504008412	3
0	6261	9859.476029664599	4
0	6264	9861.048669155567	5
0	6267	9867.192996687666	4
0	6269	9867.37577672848	5
0	6272	9873.31054469034	4
0	6274	9876.112477632851	3
0	6276	9877.27467734104	4
0	6279	9885.1763538148	5
0	6282	9888.147916100806	6
0	6285	9889.330231874747	5
0	6287	9897.174394865752	4
0	6289	9901.925506382402	5
0	6292	9908.157015161251	4
0	6294	9908.599939409539	3
0	6296	9908.850605391597	4
0	6299	9913.446745321177	5
0	6302	9917.659658171939	6
0	6305	9919.352407487605	7
0	6308	9923.975186988716	6
0	6310	9924.576681216731	7
0	6313	9925.399043267744	8
0	6315	9927.927732052793	9
0	6317	9930.928350688002	8
0	6320	9930.952316150068	7
0	6323	9932.566936350862	6
0	6325	9943.471662655084	7
0	6328	9947.239253085377	6
0	6330	9950.247737696129	7
0	6333	9954.485728925719	8
0	6335	9955.790078445213	7
0	6338	9958.704565883169	6
0	6340	9968.2176637738	7
0	6343	9968.315344865364	8
0	6345	9969.084719225315	7
0	6348	9970.278134435095	6
0	6350	9971.7320917232	7
0	6353	9972.427058711738	8
0	6355	9972.883415759679	9
0	6357	9973.28775326748	10
0	6359	9973.489830873133	9
0	6362	9974.866036341184	8
0	6365	9977.295497855034	7
0	6368	9979.321620100468	6
0	6370	9981.614609166583	5
0	6372	9983.100679622191	6
0	6375	9985.328072068796	7
0	6378	9988.600489996281	6
0	6380	9991.080005540931	7
0	6383	9993.54948440984	8
0	6385	9994.498405350752	9
0	6387	9999.352996300156	10
0	6389	10002.982715087185	11
0	6391	10019.893006345162	12
0	6393	10021.753758150693	13
0	6395	10024.536453173437	12
0	6398	10026.790152641986	11
0	6401	10029.445338108836	12
0	6403	10033.029396906107	11
0	6406	10035.433185608968	12
0	6408	10042.376275021	13
0	6410	10044.215113515948	12
0	6413	10045.350970297585	13
0	6415	10049.899856975231	14
0	6417	10050.260172625691	15
0	6419	10052.405841149609	14
0	6422	10053.777051620852	13
0	6425	10061.928075847374	14
0	6427	10067.365228568923	15
0	6429	10068.545260578418	14
0	6432	10074.502474422373	15
0	6434	10079.480821702714	14
0	6437	10079.835022969825	13
0	6440	10083.41132326458	12
0	6443	10088.244110076319	11
0	6446	10089.400403795651	12
0	6448	10091.641358895375	11
0	6451	10093.900705877506	12
0	6453	10094.73378921113	11
0	6456	10097.898198190714	10
0	6459	10098.575696926365	9
0	6462	10100.304902048542	8
0	6465	10100.817923328941	7
0	6468	10104.566646157172	6
0	6470	10106.489880714936	7
0	6473	10108.234562606302	8
0	6475	10111.05575082484	7
0	6478	10114.918417317683	8
0	6480	10115.187371446128	7
0	6483	10116.646564567164	6
0	6485	10135.047109178959	7
0	6488	10136.727447566552	8
0	6490	10137.533172769673	7
0	6493	10139.916151281263	6
0	6495	10141.673659121068	7
0	6498	10142.858507473555	6
0	6500	10143.274824819738	7
0	6503	10143.886124345267	8
0	6505	10144.61994622068	9
0	6507	10155.443934927731	8
0	6510	10157.073292849516	7
0	6513	10158.56766718049	6
0	6515	10159.610555707548	5
0	6517	10165.61496325727	4
0	6519	10167.547238683677	3
0	6521	10171.004745750489	4
0	6524	10181.426666563242	5
0	6527	10182.073316119642	6
0	6530	10183.846390152549	7
0	6533	10186.890309037327	6
0	6535	10191.040049244312	5
0	6537	10192.872180709572	6
0	6540	10204.524889060998	7
0	6543	10208.483879880571	6
0	6545	10208.93625347967	7
0	6548	10214.747065669799	6
0	6550	10214.843430377206	7
0	6553	10215.473842086318	6
0	6555	10217.085310314123	7
0	6558	10223.308940684738	6
0	6560	10229.123820555496	5
0	6562	10240.059375462855	4
0	6564	10240.152082249358	5
0	6567	10243.171420036313	4
0	6569	10244.92468949806	3
0	6571	10245.413194198943	4
0	6574	10255.905813765929	5
0	6577	10257.11918224838	6
0	6580	10261.841828971817	5
0	6582	10263.277449384726	4
0	6584	10265.660706113828	3
0	6586	10267.495954606754	4
0	6589	10273.835857116878	3
0	6591	10273.851085248844	4
0	6594	10280.184976705463	3
0	6596	10292.503719256327	4
0	6599	10294.27106687467	5
0	6602	10297.521768547406	6
0	6605	10312.813900909406	5
0	6607	10316.568028249602	6
0	6610	10318.325784302254	5
0	6612	10324.473888001206	4
0	6614	10326.024860472308	5
0	6617	10327.028269040798	4
0	6619	10335.733893294081	3
0	6621	10340.258728081268	4
0	6624	10341.284776023032	5
0	6627	10342.183166106582	6
0	6630	10343.389532925679	7
0	6633	10345.816448011253	6
0	6635	10351.784302461458	7
0	6638	10354.85581434969	8
0	6640	10357.24638691564	7
0	6643	10360.649077608407	8
0	6645	10366.182167452787	9
0	6647	10370.172629293308	8
0	6650	10373.154635085465	7
0	6653	10374.502945561507	6
0	6655	10385.552758931075	5
0	6657	10387.341637787476	4
0	6659	10388.416803979209	3
0	6661	10395.705051453775	4
0	6664	10400.489569675114	3
0	6666	10401.007905766561	2
0	6668	10419.404487597927	3
0	6671	10419.566835570069	2
0	6673	10421.301170225721	1
0	6675	10421.394966917435	2
0	6678	10430.547733738654	1
0	6680	10432.859569752192	0
0	6682	10438.470982400905	1
0	6685	10450.15539738164	2
0	6688	10457.299914970495	3
0	6691	10458.050286151262	4
0	6694	10459.526268667489	3
0	6696	10469.64868498795	4
0	6699	10470.669456854414	3
0	6701	10479.352469500976	4
0	6704	10483.276071004187	3
0	6706	10491.009767794097	4
0	6709	10494.625730590238	5
0	6712	10496.364703203289	6
0	6715	10498.933753524344	7
0	6718	10501.539417305436	8
0	6720	10502.511708137107	7
0	6723	10506.893408086732	6
0	6725	10508.798005565875	5
0	6727	10509.232435258656	4
0	6729	10514.0203412842	5
0	6732	10518.570811670047	6
0	6735	10523.453293268292	5
0	6737	10524.326835409636	4
0	6739	10538.489104107561	5
0	6742	10552.429717274157	6
0	6745	10554.750597100633	5
0	6747	10559.834925684414	4
0	6749	10561.816163345663	5
0	6752	10570.212513606841	4
0	6754	10573.391126120832	3
0	6756	10575.511886225759	4
0	6759	10590.156632543809	3
0	6761	10590.402873344227	4
0	6764	10591.971835564545	3
0	6766	10594.724319498392	4
0	6769	10596.051492708245	5
0	6772	10599.311722153033	4
0	6774	10599.574667441383	5
0	6777	10599.682617220111	6
0	6780	10606.702163573307	7
0	6783	10609.449466060891	8
0	6785	10610.856270953917	9
0	6787	10611.794606201583	8
0	6790	10615.816675641488	9
0	6792	10619.09674971066	10
0	6794	10628.342136845165	11
0	6796	10631.632751945877	10
0	6799	10632.64611800739	9
0	6802	10634.344132033778	8
0	6805	10636.771168676681	9
0	6807	10637.063295607458	10
0	6809	10639.683955291315	11
0	6811	10648.84820215429	10
0	6814	10649.165765339088	9
0	6817	10650.107099973027	8
0	6820	10651.163944518941	7
0	6823	10652.110449033751	8
0	6825	10664.490511407989	7
0	6828	10672.291498805696	8
0	6830	10673.388201090343	7
0	6833	10674.255693322764	6
0	6835	10674.780622055928	5
0	6837	10676.121440191182	4
0	6839	10694.487134488675	3
0	6841	10695.121838002244	4
0	6844	10706.080902426351	3
0	6846	10710.693689904067	2
0	6848	10713.276162912294	3
0	6851	10715.862116031432	4
0	6854	10733.889475712597	5
0	6857	10734.176742315924	4
0	6859	10738.685767164523	3
0	6861	10742.648831829893	4
0	6864	10757.423002032681	3
0	6866	10789.278536830347	4
0	6869	10796.399396732088	3
0	6871	10802.40121029347	2
0	6873	10806.276098321509	3
0	6876	10809.386640083499	2
0	6878	10810.5194218434	3
0	6881	10823.443524821776	4
0	6884	10832.672739419305	5
0	6887	10834.163105560096	4
0	6889	10845.237169235617	5
0	6892	10846.964510783548	4
0	6894	10854.545158653581	3
0	6896	10856.547261541118	2
0	6898	10857.288830236577	3
0	6901	10863.590494211001	4
0	6904	10864.721000117542	5
0	6907	10871.701834545883	4
0	6909	10873.159756767148	5
0	6912	10873.420691103929	4
0	6914	10875.363618549457	3
0	6916	10877.910720305378	4
0	6919	10883.71182292179	5
0	6922	10886.242042172651	6
0	6925	10886.902320833237	7
0	6928	10887.519552512172	8
0	6930	10888.539481382932	9
0	6932	10891.469302556535	10
0	6934	10901.690893440088	11
0	6936	10902.884861604772	10
0	6939	10904.203084174586	9
0	6942	10911.41219780468	10
0	6944	10917.917988834877	9
0	6947	10922.635057706992	10
0	6949	10923.216909194667	9
0	6952	10923.678888946826	8
0	6955	10932.152344012615	7
0	6958	10933.395877244549	6
0	6960	10938.739520495973	7
0	6963	10943.122488680506	6
0	6965	10951.487648950273	7
0	6968	10962.94958992186	6
0	6970	10963.472079222589	7
0	6973	10970.095574983509	6
0	6975	10971.088395620296	5
0	6977	10974.69138441957	4
0	6979	10975.732141393397	5
0	6982	10979.859376365571	6
0	6985	10983.113811755883	5
0	6987	10984.805000844813	6
0	6990	10993.496698639563	5
0	6992	10993.813489848109	4
0	6994	10996.303077051066	5
0	6997	10996.541690527075	4
0	6999	11013.189075612778	5
0	7002	11019.039503585393	4
0	7004	11051.013181955248	3
0	7006	11062.304285398581	4
0	7009	11064.505609614501	5
0	7012	11064.681866018204	6
0	7015	11064.836149478402	5
0	7017	11066.496540011321	6
0	7020	11068.081897941559	5
0	7022	11071.764006214636	6
0	7025	11080.462307541093	5
0	7027	11081.406078740643	6
0	7030	11082.796514955996	7
0	7033	11083.109347176579	6
0	7035	11083.522461326928	7
0	7038	11089.253911943952	6
0	7040	11095.716890597947	5
0	7042	11095.993142140403	4
0	7044	11098.419956350195	5
0	7047	11099.170270543706	4
0	7049	11101.819187219827	3
0	7051	11107.22946777493	4
0	7054	11108.422858350418	5
0	7057	11110.00545275827	6
0	7060	11116.151592094635	7
0	7063	11116.783662071782	6
0	7065	11124.242177425051	5
0	7067	11127.88628958035	4
0	7069	11129.31242032173	3
0	7071	11130.889677425039	4
0	7074	11131.624131962946	5
0	7077	11132.069175692273	6
0	7080	11135.019348159371	5
0	7082	11138.716841997879	6
0	7085	11143.814744394842	5
0	7087	11145.703305403611	4
0	7089	11146.99362911539	3
0	7091	11151.385328925597	4
0	7094	11170.578550002105	5
0	7097	11174.214008213555	4
0	7099	11176.947412968054	3
0	7101	11177.969546377794	4
0	7104	11179.281375104019	5
0	7107	11192.96143193394	6
0	7110	11210.069638991064	7
0	7113	11212.280567169293	8
0	7115	11214.244081381031	7
0	7118	11215.349114358297	6
0	7120	11219.077787942458	5
0	7122	11219.697389624527	4
0	7124	11221.816197191918	3
0	7126	11224.873344025664	4
0	7129	11236.968461745626	5
0	7132	11238.147832461923	6
0	7135	11238.926354153892	7
0	7138	11239.347543228242	6
0	7140	11241.822717275908	5
0	7142	11247.721948775331	6
0	7145	11254.866341684248	5
0	7147	11259.976924494969	4
0	7149	11264.335610942445	5
0	7152	11264.758965060295	4
0	7154	11265.020615250727	5
0	7157	11266.993362748935	4
0	7159	11269.920421295526	5
0	7162	11270.75766952274	4
0	7164	11277.640174633197	5
0	7167	11277.782059699143	4
0	7169	11279.828770866808	5
0	7172	11280.975385710503	6
0	7175	11282.429383981085	5
0	7177	11282.554724780326	4
0	7179	11284.192397701646	3
0	7181	11289.369544336493	2
0	7183	11295.405824935078	3
0	7186	11300.565452005286	2
0	7188	11302.828276104204	1
0	7190	11319.431888575845	2
0	7193	11325.610552129557	3
0	7196	11330.757427081323	4
0	7199	11332.802078875017	3
0	7201	11333.445626440984	4
0	7204	11342.981330790093	5
0	7207	11349.327663701303	4
0	7209	11349.372633704266	3
0	7211	11355.955130071577	4
0	7214	11357.06402498001	5
0	7217	11359.122148106674	6
0	7220	11360.929048445293	5
0	7222	11362.403388338453	4
0	7224	11363.364714430134	3
0	7226	11371.746749512529	2
0	7228	11377.364700599505	3
0	7231	11378.053757625785	4
0	7234	11378.22503877749	3
0	7236	11379.462567640789	4
0	7239	11387.679759138045	3
0	7241	11402.58704214572	4
0	7244	11406.673956448335	5
0	7247	11412.155371739251	6
0	7250	11412.928979760338	5
0	7252	11415.400018021612	6
0	7255	11416.433933297623	7
0	7258	11418.526890952539	6
0	7260	11418.784537892694	5
0	7262	11421.437941400932	6
0	7265	11424.399200707231	7
0	7268	11425.350424955983	8
0	7270	11427.369131938904	9
0	7272	11429.57433416672	10
0	7274	11431.836171798627	9
0	7277	11434.294425551318	8
0	7280	11434.308415434144	7
0	7283	11438.296465556462	6
0	7285	11438.861037725722	5
0	7287	11444.143942198868	6
0	7290	11446.15013449799	7
0	7293	11454.378095784621	8
0	7295	11456.034439694212	9
0	7297	11457.949391517444	8
0	7300	11460.123782432722	9
0	7302	11464.869919987077	8
0	7305	11466.773464085945	9
0	7307	11472.029678056402	10
0	7309	11472.922079634575	9
0	7312	11477.262722413802	8
0	7315	11477.806034788232	9
0	7317	11478.651241760987	10
0	7319	11478.988423399449	9
0	7322	11481.361038468778	8
0	7325	11484.480083805589	9
0	7327	11491.578471165502	8
0	7330	11496.92866244999	9
0	7332	11504.924114628256	10
0	7334	11505.691992363965	9
0	7337	11509.666769597884	10
0	7339	11517.461437435414	9
0	7342	11520.835744399932	8
0	7345	11525.18310794217	7
0	7348	11526.48937996245	6
0	7350	11531.837295475228	5
0	7352	11532.3759771994	4
0	7354	11542.211753207877	5
0	7357	11550.108605662741	4
0	7359	11550.6115267427	5
0	7362	11551.645927373512	6
0	7365	11554.607944403915	5
0	7367	11555.286581457322	4
0	7369	11555.516289202092	5
0	7372	11556.551130551522	4
0	7374	11565.849270263168	5
0	7377	11568.755249522494	6
0	7380	11575.178812244226	5
0	7382	11576.55513366917	4
0	7384	11581.579621966921	3
0	7386	11582.847939009142	4
0	7389	11592.731127173797	3
0	7391	11595.67301322633	4
0	7394	11601.291699163041	5
0	7397	11604.963701770762	6
0	7400	11608.7583111267	7
0	7403	11609.977511254488	8
0	7405	11615.337421053361	9
0	7407	11616.214801267075	8
0	7410	11617.133122666921	7
0	7413	11617.261209132022	6
0	7415	11617.492249250889	7
0	7418	11617.609033391174	6
0	7420	11618.251589481413	5
0	7422	11619.747922445008	4
0	7424	11628.847934769019	3
0	7426	11635.451411334271	2
0	7428	11635.533823250144	1
0	7430	11641.44613280999	2
0	7433	11641.970959114016	3
0	7436	11643.612777536661	4
0	7439	11643.975943420224	5
0	7442	11646.804173054746	4
0	7444	11651.344583788947	5
0	7447	11652.059951054551	4
0	7449	11652.245328796389	3
0	7451	11652.34347898347	2
0	7453	11659.270028389658	3
0	7456	11662.607999275548	2
0	7458	11664.799269568306	1
0	7460	11675.372416024042	2
0	7463	11708.516557001872	3
0	7466	11711.465493683472	4
0	7469	11723.84150201164	5
0	7472	11724.696595139586	6
0	7475	11726.562608316079	5
0	7477	11726.77501557547	4
0	7479	11728.761999824918	3
0	7481	11729.430922188917	2
0	7483	11738.858544930161	3
0	7486	11748.526175402147	4
0	7489	11760.312365320007	5
0	7492	11763.192463538411	6
0	7495	11772.989716611297	7
0	7498	11783.435345324779	6
0	7500	11787.784866566508	5
0	7502	11797.905679999273	4
0	7504	11799.179486829932	3
0	7506	11804.06875384138	4
0	7509	11807.07604168847	5
0	7512	11817.390479709349	4
0	7514	11819.371954843839	5
0	7517	11822.807804955876	4
0	7519	11824.300923576694	5
0	7522	11825.622321181521	4
0	7524	11831.910192989833	3
0	7526	11844.528369260858	4
0	7529	11849.904081742608	3
0	7531	11854.724111448716	4
0	7534	11856.146468846099	5
0	7537	11858.847639585818	6
0	7540	11859.353697315898	5
0	7542	11863.391584953585	4
0	7544	11879.037227704052	3
0	7546	11905.118449888819	4
0	7549	11906.349098284843	3
0	7551	11910.277526867397	2
0	7553	11911.076394613408	3
0	7556	11913.406058671223	2
0	7558	11932.080554374869	3
0	7561	11933.374712967113	2
0	7563	11934.006808775652	3
0	7566	11935.605952796243	2
0	7568	11937.611494983981	1
0	7570	11940.219461527069	2
0	7573	11946.832572834797	3
0	7576	11952.276575707846	4
0	7579	11959.963329021576	3
0	7581	11960.957781317189	4
0	7584	11963.542291116319	5
0	7587	11964.2679383622	4
0	7589	11970.55787524197	5
0	7592	11974.786714526294	6
0	7595	11977.566734140185	7
0	7598	11978.167731951216	6
0	7600	11978.603534619625	5
0	7602	11985.372054201323	4
0	7604	11990.384264558306	3
0	7606	11991.7795014216	4
0	7609	11998.728087809534	3
0	7611	11999.108809357599	2
0	7613	12014.022590656936	3
0	7616	12014.417060711527	4
0	7619	12015.453812586929	3
0	7621	12018.483674568389	4
0	7624	12020.108358764007	5
0	7627	12023.438750301355	4
0	7629	12023.479178673901	5
0	7632	12024.967305282222	6
0	7635	12026.400584861037	5
0	7637	12033.534220165291	4
0	7639	12034.022758608415	3
0	7641	12058.803251299764	2
0	7643	12085.434663912038	3
0	7646	12092.019815499938	4
0	7649	12094.1469406936	5
0	7652	12095.287800929807	4
0	7654	12105.941953230912	5
0	7657	12109.623123374598	4
0	7659	12110.74481638186	3
0	7661	12114.895200279703	4
0	7664	12121.029400772509	3
0	7666	12131.669255298049	4
0	7669	12131.910403005945	3
0	7671	12135.222570562509	4
0	7674	12138.40460133876	5
0	7677	12141.492216414216	4
0	7679	12149.888367061709	3
0	7681	12155.84606990718	2
0	7683	12174.864504419092	1
0	7685	12182.09697890682	0
0	7687	12183.655568179025	1
0	7690	12186.192822252664	2
0	7693	12188.375337128236	3
0	7696	12190.366759710459	2
0	7698	12201.687489537369	1
0	7700	12204.097940498779	2
0	7703	12206.477051154536	3
0	7706	12207.445112818263	2
0	7708	12215.198983274072	3
0	7711	12226.334226003538	2
0	7713	12227.50696585041	3
0	7716	12229.149549628238	4
0	7719	12234.092898366671	5
0	7722	12248.199153481185	4
0	7724	12250.558750860608	3
0	7726	12257.715546885531	2
0	7728	12271.344637837845	3
0	7731	12277.893510502661	2
0	7733	12278.135468674071	3
0	7736	12281.812971030607	4
0	7739	12284.31997341076	5
0	7742	12285.774871208888	4
0	7744	12292.020154069986	5
0	7747	12297.877182191941	6
0	7750	12301.434270655473	5
0	7752	12303.250498971033	6
0	7755	12304.628315125619	7
0	7758	12309.633595678178	6
0	7760	12310.462014028256	5
0	7762	12315.119286154401	6
0	7765	12317.262917183326	5
0	7767	12345.973242448594	6
0	7770	12357.914246438572	7
0	7773	12360.130990006522	6
0	7775	12365.865507387418	5
0	7777	12367.27523353922	4
0	7779	12369.736168868134	5
0	7782	12374.761298745341	6
0	7785	12375.843806444344	7
0	7788	12376.151030660323	8
0	7790	12380.930956158651	7
0	7793	12381.104926191393	8
0	7795	12383.953115200742	9
0	7797	12390.918646255476	8
0	7800	12392.591013210271	7
0	7803	12402.452828318144	8
0	7805	12402.958699605169	7
0	7808	12411.916240237693	6
0	7810	12414.01728097749	7
0	7813	12415.845364502898	8
0	7815	12416.465422552271	7
0	7818	12419.166514474825	8
0	7820	12420.686711160251	9
0	7822	12423.06040094369	8
0	7825	12424.992208550112	9
0	7827	12427.302711712284	8
0	7830	12428.831943239865	7
0	7833	12442.45806839702	6
0	7835	12443.981072077127	7
0	7838	12448.878457051432	6
0	7840	12450.98183769744	7
0	7843	12451.18867839535	8
0	7845	12452.794463158527	7
0	7848	12464.194105254675	6
0	7850	12467.627089866838	5
0	7852	12470.364840454531	4
0	7854	12480.413271052128	5
0	7857	12488.005140396478	6
0	7860	12492.629388098126	5
0	7862	12502.03459137	6
0	7865	12505.241523730324	5
0	7867	12505.762143386688	4
0	7869	12509.759358459027	5
0	7872	12516.949984455328	6
0	7875	12524.67811830425	7
0	7878	12525.783170833224	6
0	7880	12533.470635907227	7
0	7883	12542.201314598672	6
0	7885	12543.802284149327	5
0	7887	12546.368155274768	4
0	7889	12547.585737091569	5
0	7892	12553.005687649718	6
0	7895	12556.474274408921	5
0	7897	12565.393300520672	6
0	7900	12571.062164171645	5
0	7902	12578.001804907091	4
0	7904	12588.182678617298	5
0	7907	12588.720943539451	6
0	7910	12592.249680998915	5
0	7912	12595.393016822649	4
0	7914	12596.507242687273	3
0	7916	12599.986666258723	2
0	7918	12609.317255275085	3
0	7921	12614.945800370645	4
0	7924	12617.012733217233	3
0	7926	12618.67323995872	4
0	7929	12624.49624438341	5
0	7932	12633.438329716875	6
0	7935	12640.619380166543	5
0	7937	12646.320242683326	4
0	7939	12646.409675390991	3
0	7941	12655.068969007357	4
0	7944	12656.086835641869	3
0	7946	12659.435144593522	4
0	7949	12666.669798167267	3
0	7951	12680.362045415893	2
0	7953	12692.253021540554	1
0	7955	12714.430743017372	2
0	7958	12724.082735984384	3
0	7961	12728.285190868936	2
0	7963	12728.621441587275	3
0	7966	12733.417726764378	4
0	7969	12741.400243293938	3
0	7971	12744.167270625969	2
0	7973	12744.827553030118	1
0	7975	12759.530202370251	2
0	7978	12763.403853647601	3
0	7981	12767.338500400369	4
0	7984	12770.705093723258	5
0	7987	12772.701707216619	6
0	7990	12776.359843139977	5
0	7992	12779.54887348792	4
0	7994	12781.365686615733	3
0	7996	12783.815976824601	2
0	7998	12794.20059945084	3
0	8001	12799.273462540105	4
0	8004	12801.930528221174	5
0	8007	12802.294121486763	6
0	8010	12804.890273722998	7
0	8013	12806.61097580721	6
0	8015	12811.165290532893	7
0	8018	12813.994208750688	8
0	8020	12817.744541468711	7
0	8023	12831.384462680915	8
0	8025	12834.154537032788	9
0	8027	12835.031106265123	10
0	8029	12837.306024106433	9
0	8032	12839.054596156695	10
0	8034	12841.937421296827	11
0	8036	12850.47049697901	10
0	8039	12853.711954564086	11
0	8041	12859.627802086666	10
0	8044	12860.28713657758	9
0	8047	12866.124872109534	8
0	8050	12867.525706365648	9
0	8052	12876.121625683037	10
0	8054	12876.226471589547	9
0	8057	12879.693431625988	10
0	8059	12890.591601398179	11
0	8061	12899.021475507851	10
0	8064	12899.94363655036	9
0	8067	12903.998573301553	8
0	8070	12908.650003322228	7
[...]
1	7325	11484.480083805589	2
1	7327	11491.578471165502	1
1	7330	11496.92866244999	2
1	7332	11504.924114628256	3
1	7334	11505.691992363965	2
1	7337	11509.666769597884	3
1	7339	11517.461437435414	2
1	7342	11520.835744399932	1
1	7345	11525.18310794217	0
1	7348	11526.48937996245	0
1	7350	11531.837295475228	0
1	7352	11532.3759771994	0
1	7354	11542.211753207877	0
1	7357	11550.108605662741	0
1	7359	11550.6115267427	0
1	7362	11551.645927373512	0
1	7365	11554.607944403915	0
1	7367	11555.286581457322	0
1	7369	11555.516289202092	0
1	7372	11556.551130551522	0
1	7374	11565.849270263168	0
1	7377	11568.755249522494	0
1	7380	11575.178812244226	0
1	7382	11576.55513366917	0
1	7384	11581.579621966921	0
1	7386	11582.847939009142	0
1	7389	11592.731127173797	0
1	7391	11595.67301322633	0
1	7394	11601.291699163041	0
1	7397	11604.963701770762	0
1	7400	11608.7583111267	0
1	7403	11609.977511254488	1
1	7405	11615.337421053361	2
1	7407	11616.214801267075	1
1	7410	11617.133122666921	0
1	7413	11617.261209132022	0
1	7415	11617.492249250889	0
1	7418	11617.609033391174	0
1	7420	11618.251589481413	0
1	7422	11619.747922445008	0
1	7424	11628.847934769019	0
1	7426	11635.451411334271	0
1	7428	11635.533823250144	0
1	7430	11641.44613280999	0
1	7433	11641.970959114016	0
1	7436	11643.612777536661	0
1	7439	11643.975943420224	0
1	7442	11646.804173054746	0
1	7444	11651.344583788947	0
1	7447	11652.059951054551	0
1	7449	11652.245328796389	0
1	7451	11652.34347898347	0
1	7453	11659.270028389658	0
1	7456	11662.607999275548	0
1	7458	11664.799269568306	0
1	7460	11675.372416024042	0
1	7463	11708.516557001872	0
1	7466	11711.465493683472	0
1	7469	11723.84150201164	0
1	7472	11724.696595139586	0
1	7475	11726.562608316079	0
1	7477	11726.77501557547	0
1	7479	11728.761999824918	0
1	7481	11729.430922188917	0
1	7483	11738.858544930161	0
1	7486	11748.526175402147	0
1	7489	11760.312365320007	0
1	7492	11763.192463538411	0
1	7495	11772.989716611297	0
1	7498	11783.435345324779	0
1	7500	11787.784866566508	0
1	7502	11797.905679999273	0
1	7504	11799.179486829932	0
1	7506	11804.06875384138	0
1	7509	11807.07604168847	0
1	7512	11817.390479709349	0
1	7514	11819.371954843839	0
1	7517	11822.807804955876	0
1	7519	11824.300923576694	0
1	7522	11825.622321181521	0
1	7524	11831.910192989833	0
1	7526	11844.528369260858	0
1	7529	11849.904081742608	0
1	7531	11854.724111448716	0
1	7534	11856.146468846099	0
1	7537	11858.847639585818	0
1	7540	11859.353697315898	0
1	7542	11863.391584953585	0
1	7544	11879.037227704052	0
1	7546	11905.118449888819	0
1	7549	11906.349098284843	0
1	7551	11910.277526867397	0
1	7553	11911.076394613408	0
1	7556	11913.406058671223	0
1	7558	11932.080554374869	0
1	7561	11933.374712967113	0
1	7563	11934.006808775652	0
1	7566	11935.605952796243	0
1	7568	11937.611494983981	0
1	7570	11940.219461527069	0
1	7573	11946.832572834797	0
1	7576	11952.276575707846	0
1	7579	11959.963329021576	0
1	7581	11960.957781317189	0
1	7584	11963.542291116319	0
1	7587	11964.2679383622	0
1	7589	11970.55787524197	0
1	7592	11974.786714526294	0
1	7595	11977.566734140185	0
1	7598	11978.167731951216	0
1	7600	11978.603534619625	0
1	7602	11985.372054201323	0
1	7604	11990.384264558306	0
1	7606	11991.7795014216	0
1	7609	11998.728087809534	0
1	7611	11999.108809357599	0
1	7613	12014.022590656936	0
1	7616	12014.417060711527	0
1	7619	12015.453812586929	0
1	7621	12018.483674568389	0
1	7624	12020.108358764007	0
1	7627	12023.438750301355	0
1	7629	12023.479178673901	0
1	7632	12024.967305282222	0
1	7635	12026.400584861037	0
1	7637	12033.534220165291	0
1	7639	12034.022758608415	0
1	7641	12058.803251299764	0
1	7643	12085.434663912038	0
1	7646	12092.019815499938	0
1	7649	12094.1469406936	0
1	7652	12095.287800929807	0
1	7654	12105.941953230912	0
1	7657	12109.623123374598	0
1	7659	12110.74481638186	0
1	7661	12114.895200279703	0
1	7664	12121.029400772509	0
1	7666	12131.669255298049	0
1	7669	12131.910403005945	0
1	7671	12135.222570562509	0
1	7674	12138.40460133876	0
1	7677	12141.492216414216	0
1	7679	12149.888367061709	0
1	7681	12155.84606990718	0
1	7683	12174.864504419092	0
1	7685	12182.09697890682	0
1	7687	12183.655568179025	0
1	7690	12186.192822252664	0
1	7693	12188.375337128236	0
1	7696	12190.366759710459	0
1	7698	12201.687489537369	0
1	7700	12204.097940498779	0
1	7703	12206.477051154536	0
1	7706	12207.445112818263	0
1	7708	12215.198983274072	0
1	7711	12226.334226003538	0
1	7713	12227.50696585041	0
1	7716	12229.149549628238	0
1	7719	12234.092898366671	0
1	7722	12248.199153481185	0
1	7724	12250.558750860608	0
1	7726	12257.715546885531	0
1	7728	12271.344637837845	0
1	7731	12277.893510502661	0
1	7733	12278.135468674071	0
1	7736	12281.812971030607	0
1	7739	12284.31997341076	0
1	7742	12285.774871208888	0
1	7744	12292.020154069986	0
1	7747	12297.877182191941	0
1	7750	12301.434270655473	0
1	7752	12303.250498971033	0
1	7755	12304.628315125619	0
1	7758	12309.633595678178	0
1	7760	12310.462014028256	0
1	7762	12315.119286154401	0
1	7765	12317.262917183326	0
1	7767	12345.973242448594	0
1	7770	12357.914246438572	0
1	7773	12360.130990006522	0
1	7775	12365.865507387418	0
1	7777	12367.27523353922	0
1	7779	12369.736168868134	0
1	7782	12374.761298745341	0
1	7785	12375.843806444344	0
1	7788	12376.151030660323	1
1	7790	12380.930956158651	0
1	7793	12381.104926191393	1
1	7795	12383.953115200742	2
1	7797	12390.918646255476	1
1	7800	12392.591013210271	0
1	7803	12402.452828318144	1
1	7805	12402.958699605169	0
1	7808	12411.916240237693	0
1	7810	12414.01728097749	0
1	7813	12415.845364502898	1
1	7815	12416.465422552271	0
1	7818	12419.166514474825	1
1	7820	12420.686711160251	2
1	7822	12423.06040094369	1
1	7825	12424.992208550112	2
1	7827	12427.302711712284	1
1	7830	12428.831943239865	0
1	7833	12442.45806839702	0
1	7835	12443.981072077127	0
1	7838	12448.878457051432	0
1	7840	12450.98183769744	0
1	7843	12451.18867839535	1
1	7845	12452.794463158527	0
1	7848	12464.194105254675	0
1	7850	12467.627089866838	0
1	7852	12470.364840454531	0
1	7854	12480.413271052128	0
1	7857	12488.005140396478	0
1	7860	12492.629388098126	0
1	7862	12502.03459137	0
1	7865	12505.241523730324	0
1	7867	12505.762143386688	0
1	7869	12509.759358459027	0
1	7872	12516.949984455328	0
1	7875	12524.67811830425	0
1	7878	12525.783170833224	0
1	7880	12533.470635907227	0
1	7883	12542.201314598672	0
1	7885	12543.802284149327	0
1	7887	12546.368155274768	0
1	7889	12547.585737091569	0
1	7892	12553.005687649718	0
1	7895	12556.474274408921	0
1	7897	12565.393300520672	0
1	7900	12571.062164171645	0
1	7902	12578.001804907091	0
1	7904	12588.182678617298	0
1	7907	12588.720943539451	0
1	7910	12592.249680998915	0
1	7912	12595.393016822649	0
1	7914	12596.507242687273	0
1	7916	12599.986666258723	0
1	7918	12609.317255275085	0
1	7921	12614.945800370645	0
1	7924	12617.012733217233	0
1	7926	12618.67323995872	0
1	7929	12624.49624438341	0
1	7932	12633.438329716875	0
1	7935	12640.619380166543	0
1	7937	12646.320242683326	0
1	7939	12646.409675390991	0
1	7941	12655.068969007357	0
1	7944	12656.086835641869	0
1	7946	12659.435144593522	0
1	7949	12666.669798167267	0
1	7951	12680.362045415893	0
1	7953	12692.253021540554	0
1	7955	12714.430743017372	0
1	7958	12724.082735984384	0
1	7961	12728.285190868936	0
1	7963	12728.621441587275	0
1	7966	12733.417726764378	0
1	7969	12741.400243293938	0
1	7971	12744.167270625969	0
1	7973	12744.827553030118	0
1	7975	12759.530202370251	0
1	7978	12763.403853647601	0
1	7981	12767.338500400369	0
1	7984	12770.705093723258	0
1	7987	12772.701707216619	0
1	7990	12776.359843139977	0
1	7992	12779.54887348792	0
1	7994	12781.365686615733	0
1	7996	12783.815976824601	0
1	7998	12794.20059945084	0
1	8001	12799.273462540105	0
1	8004	12801.930528221174	0
1	8007	12802.294121486763	0
1	8010	12804.890273722998	0
1	8013	12806.61097580721	0
1	8015	12811.165290532893	0
1	8018	12813.994208750688	1
1	8020	12817.744541468711	0
1	8023	12831.384462680915	1
1	8025	12834.154537032788	2
1	8027	12835.031106265123	3
1	8029	12837.306024106433	2
1	8032	12839.054596156695	3
1	8034	12841.937421296827	4
1	8036	12850.47049697901	3
1	8039	12853.711954564086	4
1	8041	12859.627802086666	3
1	8044	12860.28713657758	2
1	8047	12866.124872109534	1
1	8050	12867.525706365648	2
1	8052	12876.121625683037	3
1	8054	12876.226471589547	2
1	8057	12879.693431625988	3
1	8059	12890.591601398179	4
1	8061	12899.021475507851	3
1	8064	12899.94363655036	2
1	8067	12903.998573301553	1
1	8070	12908.650003322228	0
1	8073	12908.764071419988	0
1	8075	12909.408667046969	0
1	8078	12915.110487858072	0
1	8080	12915.376258860344	0
1	8083	12919.571484890737	0
1	8085	12919.592936482837	0
1	8087	12926.627667308742	0
1	8089	12935.999116703179	0
1	8091	12938.251211440957	0
1	8094	12938.990279883639	0
1	8096	12942.733652180012	0
1	8098	12958.036209994472	0
1	8100	12958.39987604601	0
1	8102	12967.310807449519	0
1	8105	12967.459331772294	0
1	8108	12971.343411163894	0
1	8110	12971.525200377004	0
1	8112	12973.552001029951	0
1	8115	12974.650565276444	0
1	8118	12978.512956111962	0
1	8120	12989.36675880627	0
1	8123	12999.395261470799	0
1	8125	13000.28046264168	0
1	8128	13002.826433982871	0
1	8131	13003.154189872448	0
1	8133	13006.738804987214	0
1	8136	13010.490415689847	0
1	8139	13014.416097265551	0
1	8141	13028.067408646709	0
1	8143	13031.486515753654	0
1	8146	13032.803216402867	0
1	8149	13033.393288247366	0
1	8151	13034.015393051078	0
1	8154	13034.509465476555	0
1	8157	13040.110723526756	0
1	8159	13043.49871950222	0
1	8161	13043.811938907052	0
1	8163	13068.167951283008	0
1	8165	13071.243512996514	0
1	8168	13076.872893440808	0
1	8171	13083.29999502309	0
1	8173	13086.369637190236	0
1	8175	13087.90268775887	0
1	8177	13088.583868528937	0
1	8180	13090.089114590161	0
1	8183	13106.500122398481	0
1	8186	13107.715793058964	0
1	8188	13108.638128683521	0
1	8191	13110.118413237651	0
1	8193	13114.627159646345	0
1	8196	13114.737770541644	0
1	8199	13120.063972905558	0
1	8202	13123.088199821107	0
1	8205	13132.809869852143	0
1	8208	13135.306009993906	0
1	8210	13139.522683787834	0
1	8212	13139.79379949741	0
1	8214	13153.492996068211	0
1	8217	13153.900720835169	0
1	8220	13154.042330144238	0
1	8223	13167.792818479105	0
1	8225	13168.347316236556	0
1	8227	13177.417663505981	0
1	8229	13181.751663757928	0
1	8232	13183.718607623802	0
1	8234	13184.311340989855	0
1	8236	13184.37801664497	0
1	8238	13186.953148128721	0
1	8240	13204.291999548483	0
1	8243	13212.424894708056	0
1	8246	13219.356250801047	0
1	8249	13230.855781548847	0
1	8252	13232.04872034444	0
1	8255	13232.32921353558	0
1	8257	13238.888557887224	0
1	8259	13244.307335690516	0
1	8261	13249.035487516118	0
1	8264	13249.25146988889	0
1	8267	13249.820319923214	0
1	8270	13255.862479001788	0
1	8272	13259.554584603843	0
1	8274	13260.108538799554	0
1	8277	13265.413232527814	0
1	8279	13267.192636542806	0
1	8282	13277.507669522832	0
1	8284	13280.153226678633	0
1	8286	13282.939720687821	0
1	8289	13284.162769844725	0
1	8292	13287.520766981912	0
1	8295	13292.516164002601	0
1	8298	13293.210460436184	0
1	8300	13299.097319784668	0
1	8302	13304.148457465344	0
1	8304	13311.564048518267	0
1	8306	13316.530554819171	0
1	8308	13318.700033694783	0
1	8311	13321.269385774823	0
1	8314	13331.191090809966	0
1	8316	13333.723020885394	0
1	8319	13338.545324501311	0
1	8322	13339.675729009847	0
1	8325	13351.980508458927	0
1	8328	13358.676493335978	1
1	8330	13360.530471368653	2
1	8332	13362.485398697174	3
1	8334	13365.324733115882	4
1	8336	13367.94366964331	5
1	8338	13371.29176577272	6
1	8340	13377.011930413374	7
1	8342	13380.017909396003	6
1	8345	13381.359836195145	7
1	8347	13382.920990004325	8
1	8349	13383.885038185032	7
1	8352	13386.668569104536	6
1	8355	13388.917144210465	7
1	8357	13393.770824753439	8
1	8359	13394.7043952945	9
1	8361	13395.782282122136	10
1	8363	13396.566321060996	11
1	8365	13397.147657844599	12
1	8367	13399.585921854251	11
1	8370	13406.569553984343	10
1	8373	13409.71796087915	11
1	8375	13412.340480237803	12
1	8377	13413.837594920312	11
1	8380	13418.536396865779	10
1	8383	13421.127475750479	9
1	8386	13424.432830101164	8
1	8389	13430.315491027524	7
1	8392	13432.115094382077	6
1	8395	13432.560046985072	5
1	8398	13432.752116666685	6
1	8400	13433.097169408578	5
1	8403	13434.440294761098	4
1	8406	13437.668299306868	5
1	8408	13438.082825561513	4
1	8411	13443.176532860949	3
1	8414	13443.900111980007	2
1	8417	13455.622656359041	3
1	8419	13458.885788708211	4
1	8421	13462.911979052684	3
1	8424	13463.37322147691	4
1	8426	13466.060622340502	3
1	8429	13466.138973746626	2
1	8432	13467.885834292846	1
1	8435	13469.397221914071	2
1	8437	13473.919396979689	3
1	8439	13475.25119968211	4
1	8441	13476.616202312834	3
1	8444	13478.71101278849	2
1	8447	13479.871174433764	3
1	8449	13483.435061031643	4
1	8451	13490.969263165484	5
1	8453	13491.247977721566	4
1	8456	13491.763870940517	3
1	8459	13494.886423177617	2
1	8462	13500.781273165467	1
1	8465	13510.308163824139	0
1	8468	13515.161057150161	1
1	8470	13515.490165635967	0
1	8473	13517.695239117796	1
1	8475	13521.052936326627	2
1	8477	13525.277852807992	1
1	8480	13535.667704145247	0
1	8483	13541.730615872769	1
1	8485	13545.781898790715	0
1	8488	13547.935036109401	1
1	8490	13548.377401490459	0
1	8493	13550.30396186297	1
1	8495	13550.957124411001	0
1	8498	13551.030192439292	1
1	8500	13553.050013070435	0
1	8503	13553.906928543063	1
1	8505	13556.254572067578	2
1	8507	13558.736695589129	3
1	8509	13558.808858932069	2
1	8512	13560.88265035128	1
1	8515	13566.110038393033	0
1	8518	13570.311184510453	0
1	8520	13570.736311820803	0
1	8522	13591.658095583873	0
1	8524	13592.792402094205	0
1	8526	13593.905808437219	0
1	8528	13596.388372113753	0
1	8531	13601.608172991071	0
1	8534	13602.080992992662	0
1	8537	13615.125960462381	0
1	8539	13617.89074944716	0
1	8541	13618.872548642959	0
1	8544	13619.458498441308	0
1	8547	13624.868203878813	0
1	8550	13635.213124395032	0
1	8552	13636.902390897485	0
1	8554	13641.634494602513	0
1	8556	13643.543696182327	0
1	8558	13644.125181952498	0
1	8561	13644.290036327149	0
1	8563	13651.965185077874	0
1	8565	13656.687274832417	0
1	8568	13664.788973393362	0
1	8571	13666.290385578144	0
1	8574	13667.295833647832	0
1	8577	13670.52970094427	0
1	8580	13673.020018173839	0
1	8582	13678.824433626449	0
1	8585	13683.512882108435	0
1	8588	13685.363691541089	1
1	8590	13688.303564706921	2
1	8592	13689.380764589732	3
1	8594	13691.223040886022	4
1	8596	13692.924932444809	5
1	8598	13703.908904815562	6
1	8600	13704.890213812399	5
1	8603	13704.966919756574	4
1	8606	13707.488485038066	5
1	8608	13707.517247991596	4
1	8611	13708.078578930583	5
1	8613	13714.139876499012	4
1	8616	13715.0546519533	5
1	8618	13715.059243552939	6
1	8620	13717.100590233203	5
1	8623	13720.672144073443	4
1	8626	13723.338757814943	5
1	8628	13724.342622263253	4
1	8631	13725.399117713492	5
1	8633	13725.707104889087	4
1	8636	13730.552978530068	3
1	8639	13736.129098512646	4
1	8641	13743.816823319218	5
1	8643	13746.806372274014	4
1	8646	13748.979136858844	3
1	8649	13749.690550425535	2
1	8652	13752.863300022864	1
1	8655	13755.254631202798	2
1	8657	13762.964465892971	3
1	8659	13763.554283028273	4
1	8661	13770.579197752516	3
1	8664	13776.18242831237	4
1	8666	13783.121135682351	3
1	8669	13788.696471692789	2
1	8672	13790.35804508633	3
1	8674	13797.521751195075	4
1	8676	13804.083236635927	5
1	8678	13808.658035440253	6
1	8680	13810.13843973598	5
1	8683	13812.008483978157	6
1	8685	13817.740495463702	7
1	8687	13824.356978075818	8
1	8689	13839.286293761315	9
1	8691	13842.729915578842	8
1	8694	13843.748041045344	7
1	8697	13846.558239384263	6
1	8700	13848.206934451131	5
1	8703	13848.800211087089	4
1	8706	13856.247394152059	5
1	8708	13857.755913803819	4
1	8711	13860.934312909847	5
1	8713	13867.021565836629	4
1	8716	13872.085559565484	5
1	8718	13880.003670683636	6
1	8720	13882.387830550347	5
1	8723	13884.140755567937	4
1	8726	13885.972069408761	5
1	8728	13886.914513092966	6
1	8730	13888.243962327866	5
1	8733	13889.217552605681	6
1	8735	13903.225067782549	7
1	8737	13906.778271096238	8
1	8739	13909.527629120204	7
1	8742	13909.796089466784	6
1	8745	13912.921645648274	7
1	8747	13915.14395249914	6
1	8750	13926.113835491843	7
1	8752	13926.318077892439	6
1	8755	13928.433157324776	7
1	8757	13930.28895988286	6
1	8760	13930.395425767615	7
1	8762	13931.250585202926	6
1	8765	13938.15393701622	7
1	8767	13940.267024967397	6
1	8770	13940.451239868026	7
1	8772	13942.850241398561	6
1	8775	13945.73759448499	7
1	8777	13949.176152966543	8
1	8779	13950.064045266902	9
1	8781	13953.429723791703	10
1	8783	13953.683092497362	9
1	8786	13954.378861768921	8
1	8789	13956.671409266023	9
1	8791	13960.384907503859	8
1	8794	13966.184317757597	7
1	8797	13967.000054060865	8
1	8799	13971.381030134006	9
1	8801	13971.4091235718	10
1	8803	13972.238282676371	9
1	8806	13974.334424004162	8
1	8809	13975.801205563432	9
1	8811	13981.70689399343	10
1	8813	13981.778392573633	11
1	8815	13983.725326732368	10
1	8818	13990.851912737563	11
1	8820	13995.286699986844	10
1	8823	13995.884064984386	9
1	8826	13997.945754679756	8
1	8829	13999.530801885288	7
1	8832	14000.221485634639	6
1	8835	14001.151662362452	7
1	8837	14002.975620616845	6
1	8840	14006.138403254215	5
1	8843	14008.306571862396	4
1	8846	14008.6141375313	3
1	8849	14009.550889614368	2
1	8852	14011.1813914996	1
1	8855	14014.103590836865	2
1	8857	14015.866158363244	3
1	8859	14016.667273127948	4
1	8861	14017.557587573829	3
1	8864	14018.874213286837	2
1	8867	14020.13744278113	1
1	8870	14023.093281039897	0
1	8873	14023.143986905391	1
1	8875	14025.706927724858	0
1	8878	14027.725122169202	1
1	8880	14029.672153473904	2
1	8882	14029.680277601625	1
1	8885	14031.016396689019	0
1	8888	14031.450456763266	0
1	8890	14033.576130844578	0
1	8893	14036.584983932452	1
1	8895	14038.386842408601	0
1	8898	14042.040123541995	0
1	8900	14043.370948805187	0
1	8902	14050.403363487733	0
1	8905	14055.567218229032	0
1	8908	14058.280880427197	0
1	8910	14059.21571567301	0
1	8913	14064.021784899068	0
1	8915	14064.214874558373	0
1	8918	14069.166035302086	1
1	8920	14074.112964712153	0
1	8923	14074.805557261482	0
1	8925	14081.588639341929	0
1	8927	14082.523527389175	0
1	8929	14084.327341385165	0
1	8931	14085.225862404002	0
1	8933	14085.80355480314	0
1	8936	14091.299620830773	0
1	8939	14094.560950683949	0
1	8941	14095.54968773439	0
1	8944	14100.250562613403	0
1	8946	14100.821310342224	0
1	8948	14104.580269346428	0
1	8951	14108.108090149217	0
1	8954	14114.132856557454	0
1	8957	14118.882484253204	0
1	8960	14119.378854874949	0
1	8963	14121.821717627051	0
1	8965	14124.126845504824	0
1	8967	14130.099247068384	0
1	8970	14133.078964287987	0
1	8973	14134.173869886361	0
1	8975	14138.062417584197	0
1	8977	14144.36029862242	0
1	8979	14146.919495094895	0
1	8982	14149.893138927788	0
1	8984	14161.865985864857	0
1	8987	14163.453699660836	0
1	8989	14165.295618520194	0
1	8992	14175.091363496587	0
1	8994	14176.821568089912	0
1	8996	14187.160736556251	0
1	8999	14194.943495838795	0
1	9002	14197.406484498806	0
1	9004	14203.995779355978	0
1	9007	14221.75640568872	0
1	9010	14228.486795321236	0
1	9013	14229.382527285067	1
1	9015	14231.568565117834	0
1	9018	14233.384064847586	0
1	9020	14234.501597768266	0
1	9023	14235.931692754698	1
1	9025	14237.103332604733	0
1	9028	14242.423948160604	0
1	9030	14243.299812230833	0
1	9033	14252.707368710285	0
1	9035	14257.63790306099	0
1	9037	14258.959905922324	0
1	9039	14261.440377633363	0
1	9042	14269.600549216165	0
1	9044	14274.332571792887	0
1	9047	14283.503990465976	0
1	9049	14284.630776994315	0
1	9052	14290.779254657312	0
1	9055	14296.176659976659	0
1	9057	14299.219044998232	0
1	9060	14304.765920338249	0
1	9063	14306.024663860134	1
1	9065	14308.566479177886	2
1	9067	14316.948961508431	3
1	9069	14325.087266951177	4
1	9071	14326.425583825667	5
1	9073	14331.43668554799	4
1	9076	14333.236775060005	3
1	9079	14338.726169221368	2
1	9082	14339.404919594286	3
1	9084	14340.026344925107	2
1	9087	14344.944870742515	1
1	9090	14347.82361072586	2
1	9092	14356.004069257226	3
1	9094	14356.468070230835	2
1	9097	14360.795534667092	1
1	9100	14372.929710585573	0
1	9103	14376.889421648195	0
1	9105	14377.683127750464	0
1	9108	14379.504361769791	0
1	9110	14383.936521776266	0
1	9113	14387.943095437974	1
1	9115	14396.588099667144	0

