version 2
run POLICY_1-18-20191213-12:40:09-1217
attr configname POLICY_1
attr datetime 20191213-12:40:09
attr experiment POLICY_1
attr inifile omnetpp.ini
attr iterationvars ""
attr iterationvarsf ""
attr measurement ""
attr network Carrefour
attr processid 1217
attr repetition 18
attr replication #18
attr resultdir results
attr runnumber 18
attr seedset 18
param **.policy 1
param **.delta 0s
param **.tillsNumber 7
param **.capacity 0.3
param **.meanInterArrivalTime 8s
param **.meanItemsInACart 12
param **.interArrivalDistribution 0
param **.itemsInCartDistribution 0

vector 0 Carrefour.decider stats_numCustomers:vector ETV
attr "" ""
attr source numCustomers
vector 1 Carrefour.decider stats_numCustomersQueue:vector ETV
attr "" ""
attr source numCustomersQueue
0	803	1201.01356805413	3
0	806	1205.752155179273	4
0	809	1208.40785313085	3
0	811	1209.010926941148	4
0	814	1216.187701930182	5
0	817	1218.70519725092	6
0	820	1221.314216868988	5
0	822	1223.350298684284	4
0	824	1224.544210658101	5
0	827	1230.458668141979	4
0	829	1231.146633063274	5
0	832	1231.826451207024	4
0	834	1232.317044391736	3
0	836	1233.422097874986	2
0	838	1234.483633657062	1
0	840	1244.553430063081	2
0	843	1267.34744668674	1
0	845	1284.564643733899	2
0	848	1295.213066911473	3
0	851	1300.178920482971	2
0	853	1304.784057589426	1
0	855	1312.888715418422	2
0	858	1317.288069970529	3
0	861	1318.354586238243	4
0	864	1321.234809032518	3
0	866	1330.264406556003	4
0	869	1334.159903785128	5
0	872	1335.878654164466	4
0	874	1340.501967994153	3
0	876	1346.074142894398	2
0	878	1380.221923471091	1
0	880	1381.648027668452	2
0	883	1386.060698985702	3
0	886	1386.114561970571	2
0	888	1390.627961308815	1
0	890	1392.105027276756	2
0	893	1393.670733166628	3
0	896	1402.045861175577	2
0	898	1403.770580949919	3
0	901	1403.86015355973	4
0	904	1410.186322997933	3
0	906	1418.492243808222	4
0	909	1420.422518673274	3
0	911	1427.07863750764	2
0	913	1430.308306463964	3
0	916	1435.327955303729	2
0	918	1439.575998497747	1
0	920	1447.477448573261	0
0	922	1455.806041229247	1
0	925	1461.002175156513	0
0	927	1479.961612290126	1
0	930	1487.976641939067	2
0	933	1490.325502501301	3
0	936	1490.360530289234	4
0	939	1504.76175600146	3
0	941	1516.235405281787	4
0	944	1517.123458185988	3
0	946	1518.604796759437	4
0	949	1519.702320988539	3
0	951	1530.49564298512	4
0	954	1533.558085257902	5
0	957	1533.764006310555	4
0	959	1536.3795060657	3
0	961	1537.169393908331	2
0	963	1547.956641484545	3
0	966	1554.46809051453	2
0	968	1555.840333626193	3
0	971	1561.234985284016	4
0	974	1569.752518057647	5
0	977	1571.91573653831	4
0	979	1587.859350349052	3
0	981	1590.657842966813	2
0	983	1591.954670618287	3
0	986	1596.70746882897	4
0	989	1600.37086472418	5
0	992	1602.600154438792	6
0	995	1608.725951577594	7
0	998	1613.812994970386	8
0	1000	1614.400062716952	7
0	1003	1620.764435024029	8
0	1005	1621.000151403677	9
0	1007	1623.195954749273	10
0	1009	1623.364426720123	11
0	1011	1626.969014724169	10
0	1014	1631.690525163981	9
0	1017	1635.655984805583	10
0	1019	1636.492078292365	11
0	1021	1638.094661352169	12
0	1023	1638.140075800534	13
0	1025	1639.422805297983	14
0	1027	1641.330073676025	13
0	1030	1641.616850544673	14
0	1032	1642.931694970123	13
0	1035	1643.73087159065	12
0	1038	1649.54644037054	13
0	1040	1650.213107476313	12
0	1043	1652.129317564492	11
0	1046	1653.080540942036	10
0	1049	1661.85324625939	9
0	1052	1665.169320203427	8
0	1055	1665.571359484246	9
0	1057	1667.19766068106	10
0	1059	1668.298295674663	9
0	1062	1680.284543305053	8
0	1065	1685.767463083571	7
0	1068	1686.275665185708	8
0	1070	1689.230955245616	9
0	1072	1691.922882130075	8
0	1075	1695.902595895241	7
0	1078	1700.994984239571	6
0	1080	1708.080693450448	5
0	1082	1708.441637016383	4
0	1084	1714.961412309963	5
0	1087	1727.124349953818	4
0	1089	1730.338654568448	5
0	1092	1731.262414503754	6
0	1095	1731.972885938552	7
0	1098	1732.159098945251	6
0	1100	1738.857190896529	5
0	1102	1740.777069997556	4
0	1104	1741.711491368304	5
0	1107	1748.77753871874	6
0	1110	1752.463085478368	5
0	1112	1753.114121863359	6
0	1115	1759.869948633704	5
0	1117	1760.471805970001	6
0	1120	1761.592801212015	7
0	1123	1764.726449341288	6
0	1125	1767.310791374579	5
0	1127	1767.347887151134	4
0	1129	1768.651058991956	5
0	1132	1772.534351775458	6
0	1135	1776.353853153844	5
0	1137	1778.228428296577	6
0	1140	1780.382300617505	5
0	1142	1781.440030314614	4
0	1144	1782.144531956864	3
0	1146	1798.714599732147	2
0	1148	1799.275049486569	3
0	1151	1799.439807656335	2
0	1153	1801.768067371058	3
0	1156	1807.472880851855	2
0	1158	1813.216878889308	1
0	1160	1816.681400931741	2
0	1163	1827.252851424044	3
0	1166	1831.291600219902	4
0	1169	1834.203680092575	5
0	1172	1834.559499960589	4
0	1174	1838.30150275394	5
0	1177	1845.805926112844	4
0	1179	1847.143524845904	3
0	1181	1851.087530978621	4
0	1184	1855.693174032706	5
0	1187	1856.698336948008	4
0	1189	1863.395309515078	3
0	1191	1865.897275420276	2
0	1193	1875.526097586822	3
0	1196	1883.402868149472	4
0	1199	1886.272276016496	3
0	1201	1888.093229730429	4
0	1204	1890.595954194977	5
0	1207	1892.001434920114	6
0	1210	1893.667866984406	7
0	1213	1897.704706033846	6
0	1215	1899.138074617903	5
0	1217	1902.229928867634	4
0	1219	1911.758790762413	5
0	1222	1932.375388282427	6
0	1225	1938.169123832591	5
0	1227	1947.178021329799	4
0	1229	1949.91692776593	3
0	1231	1954.266206656218	4
0	1234	1976.354581500858	5
0	1237	1994.969456383154	4
0	1239	1998.526191578313	5
0	1242	2007.135378962613	6
0	1245	2007.736185068664	7
0	1248	2011.42513323293	8
0	1250	2024.457937959847	7
0	1253	2024.522992605042	8
0	1255	2024.924626591212	7
0	1258	2026.630898993076	8
0	1260	2035.427445470307	7
0	1263	2038.539640308801	6
0	1265	2041.52799740282	5
0	1267	2042.19264751596	4
0	1269	2044.70582258385	3
0	1271	2047.777811237546	4
0	1274	2052.968163946247	5
0	1277	2054.983997218233	6
0	1280	2057.480296100677	5
0	1282	2060.748997146234	6
0	1285	2061.427906956962	7
0	1288	2062.189899258169	6
0	1290	2063.096812681928	7
0	1293	2065.033705662914	8
0	1295	2068.41283818408	9
0	1297	2074.044341342854	10
0	1299	2078.093752085275	9
0	1302	2078.57656030327	8
0	1305	2078.909993685306	7
0	1308	2080.92375203308	6
0	1310	2082.147244106797	5
0	1312	2083.159191415922	4
0	1314	2087.005646203001	3
0	1316	2089.659840335731	2
0	1318	2090.54845270806	3
0	1321	2094.169979068142	2
0	1323	2094.809694162716	3
0	1326	2117.515312929223	4
0	1329	2128.274949813239	3
0	1331	2128.318837763493	4
0	1334	2131.266712305173	3
0	1336	2134.128392853965	4
0	1339	2135.500314298354	3
0	1341	2147.702631867634	4
0	1344	2156.188017507234	5
0	1347	2157.771145948551	4
0	1349	2157.797091216579	5
0	1352	2157.865793550895	6
0	1355	2157.992979785512	5
0	1357	2158.10242802434	4
0	1359	2165.206241886117	5
0	1362	2165.303399848613	4
0	1364	2173.696152371888	3
0	1366	2175.064115699535	2
0	1368	2180.105911726028	3
0	1371	2184.199038854374	4
0	1374	2187.423911046912	3
0	1376	2188.093403770671	4
0	1379	2190.949925570375	3
0	1381	2191.530899037722	4
0	1384	2193.029385382211	5
0	1387	2206.009527563258	6
0	1390	2209.363497632158	7
0	1393	2212.553881230899	8
0	1395	2214.152635746354	7
0	1398	2222.278754737411	6
0	1400	2223.343734970639	7
0	1403	2232.837290791607	6
0	1405	2235.492210396083	7
0	1408	2235.598685740945	8
0	1410	2237.829710536282	7
0	1413	2239.564740980866	8
0	1415	2239.663371107544	7
0	1418	2241.694383920473	6
0	1420	2251.774656725094	5
0	1422	2269.141586528886	4
0	1424	2269.902331104215	5
0	1427	2277.177275331075	4
0	1429	2278.068530555025	3
0	1431	2286.564458100738	2
0	1433	2293.192193808797	3
0	1436	2300.568980307526	2
0	1438	2303.865587903537	3
0	1441	2309.070409838315	4
0	1444	2316.572799933307	5
0	1447	2322.735327725997	6
0	1450	2328.343467755001	5
0	1452	2329.910078710217	6
0	1455	2331.133370105494	5
0	1457	2331.44100336339	6
0	1460	2333.796094014963	7
0	1463	2337.668243343037	8
0	1465	2337.965610043499	7
0	1468	2352.844460277275	8
0	1470	2355.399888807511	7
0	1473	2356.021115874045	6
0	1475	2360.594752782082	5
0	1477	2364.161057070193	4
0	1479	2380.701283851304	5
0	1482	2382.282056154322	6
0	1485	2382.432679322227	7
0	1488	2382.814481966618	6
0	1490	2385.547442184452	5
0	1492	2386.803283858003	4
0	1494	2387.205553045855	3
0	1496	2395.948565571363	4
0	1499	2397.804467187871	3
0	1501	2400.730912155047	2
0	1503	2411.160364060328	3
0	1506	2417.627073277007	2
0	1508	2418.48981871701	3
0	1511	2423.60152124749	4
0	1514	2426.599377609168	5
0	1517	2435.125319847145	4
0	1519	2439.247772521182	5
0	1522	2440.021960013507	4
0	1524	2440.285524920703	5
0	1527	2443.673499728508	6
0	1530	2444.165443891413	7
0	1533	2447.13782439054	6
0	1535	2450.037215821825	7
0	1538	2450.713720015556	8
0	1540	2455.707227453758	9
0	1542	2456.579104713658	8
0	1545	2460.102857822569	7
0	1548	2461.908251330188	6
0	1550	2464.80823426623	7
0	1553	2473.775094450329	8
0	1555	2478.56367109919	7
0	1558	2478.942628312126	6
0	1560	2484.750319380364	5
0	1562	2486.37851124354	6
0	1565	2489.985062774152	5
0	1567	2494.593630798176	6
0	1570	2496.115241143192	7
0	1573	2498.149653504309	8
0	1575	2503.517784764422	7
0	1578	2505.831798663938	6
0	1580	2506.788884035569	7
0	1583	2507.850780688215	6
0	1585	2511.719753078997	7
0	1588	2521.799405807697	6
0	1590	2525.602655304204	5
0	1592	2526.140882287935	6
0	1595	2527.394723510648	7
0	1598	2529.33937444359	8
0	1600	2530.541220790921	7
0	1603	2530.796969298293	6
0	1605	2531.410785614422	7
0	1608	2533.544898117674	6
0	1610	2536.131006086987	7
0	1613	2541.775204414899	6
0	1615	2541.956890828925	5
0	1617	2545.427603607107	4
0	1619	2545.962801511679	3
0	1621	2547.736375609965	2
0	1623	2555.600328667371	3
0	1626	2555.613612948553	2
0	1628	2562.129381133196	3
0	1631	2574.409880544851	2
0	1633	2576.847143493283	3
0	1636	2582.94044935482	4
0	1639	2584.202378482441	3
0	1641	2585.644703889455	4
0	1644	2594.309926224994	5
0	1647	2599.627522356156	6
0	1650	2606.519262326378	7
0	1653	2608.198620783558	6
0	1655	2613.514633065137	7
0	1658	2618.148973192975	6
0	1660	2620.492666880305	7
0	1663	2623.637989629498	6
0	1665	2627.503295013226	7
0	1668	2633.485895605665	8
0	1670	2634.902270180669	7
0	1673	2636.833670631176	6
0	1675	2644.813822499964	7
0	1678	2645.87466730832	8
0	1680	2651.268023498324	7
0	1683	2657.79293411723	6
0	1685	2664.956185955191	7
0	1688	2666.216167038945	6
0	1690	2670.796249231961	7
0	1693	2674.947544610012	6
0	1695	2679.235090064243	7
0	1698	2687.247429374021	8
0	1700	2691.996692255666	7
0	1703	2693.3803641232	6
0	1705	2693.966907925506	7
0	1708	2695.294146907005	6
0	1710	2701.972236918289	7
0	1713	2702.545576694617	6
0	1715	2705.976936442709	7
0	1718	2706.123089970311	6
0	1720	2708.03862286735	5
0	1722	2713.048529057673	4
0	1724	2713.814604224342	5
0	1727	2714.569800258996	4
0	1729	2716.922343077879	5
0	1732	2717.995804443319	4
0	1734	2731.11150078209	3
0	1736	2743.134288022075	4
0	1739	2743.317094527545	3
0	1741	2754.304634495305	2
0	1743	2760.522658644039	1
0	1745	2760.72872785933	0
0	1747	2763.393235016732	1
0	1750	2768.230477115349	2
0	1753	2769.089869304648	3
0	1756	2786.275505701939	4
0	1759	2787.358662165044	3
0	1761	2791.251668181058	4
0	1764	2805.19585919233	3
0	1766	2808.359390074477	2
0	1768	2817.546510310445	3
0	1771	2823.299579745672	2
0	1773	2830.82251450778	3
0	1776	2834.642661986201	2
0	1778	2841.927121993709	1
0	1780	2874.811251450447	2
0	1783	2882.890769242048	1
0	1785	2884.311233815152	2
0	1788	2890.457807126992	3
0	1791	2898.409926352021	2
0	1793	2904.290892031227	1
0	1795	2916.146072993248	2
0	1798	2930.716670626894	1
0	1800	2931.050085336107	2
0	1803	2934.555739199226	3
0	1806	2934.659743343708	4
0	1809	2936.534280458673	5
0	1812	2942.309741819507	4
0	1814	2943.651411256217	5
0	1817	2944.87488695924	6
0	1820	2948.480415642616	7
0	1823	2955.726158521083	6
0	1825	2957.596172563761	5
0	1827	2963.919973679407	4
0	1829	2966.224705198619	3
0	1831	2968.11060073029	2
0	1833	2976.849449908505	3
0	1836	2980.625859960667	4
0	1839	2981.655452229559	3
0	1841	2982.058654891626	2
0	1843	3000.044183104726	1
0	1845	3007.44422043892	0
0	1847	3023.369475922888	1
0	1850	3025.445323033166	2
0	1853	3036.295712836536	3
0	1856	3038.804254367982	2
0	1858	3044.434097467703	1
0	1860	3052.805542261594	2
0	1863	3054.571074254177	1
0	1865	3057.557499170479	2
0	1868	3068.228221140612	3
0	1871	3073.550543793415	2
0	1873	3076.456253626428	3
0	1876	3077.973658331982	4
0	1879	3078.196306063664	3
0	1881	3085.542192240409	4
0	1884	3091.477282030939	3
0	1886	3091.507294892387	4
0	1889	3091.753555347551	5
0	1892	3096.305515486218	6
0	1895	3109.915052821107	7
0	1898	3110.537532938592	6
0	1900	3114.636709672865	5
0	1902	3116.558221372315	4
0	1904	3121.805299649018	3
0	1906	3122.671619085825	2
0	1908	3157.874861136668	3
0	1911	3169.150653348256	4
0	1914	3178.854304569309	5
0	1917	3179.914780113725	4
0	1919	3182.483817047141	3
0	1921	3186.093978775158	4
0	1924	3194.514861560978	5
0	1927	3195.73507340747	6
0	1930	3195.769811710513	5
0	1932	3196.693043495493	6
0	1935	3200.710033215452	7
0	1938	3201.038249470918	8
0	1940	3208.214775258172	7
0	1943	3208.355589317948	8
0	1945	3210.323914622087	9
0	1947	3213.028773295757	10
0	1949	3213.427853322494	11
0	1951	3213.983387786567	10
0	1954	3219.925869573637	9
0	1957	3223.666355026943	8
0	1960	3223.671335420562	7
0	1963	3225.786561320333	8
0	1965	3238.751960205784	7
0	1968	3244.834989705072	8
0	1970	3247.228426472104	7
0	1973	3247.999873263368	8
0	1975	3248.714074911375	9
0	1977	3252.731504364417	10
0	1979	3261.783789097594	9
0	1982	3265.210137539814	8
0	1985	3266.175854203964	7
0	1988	3266.305006936668	6
0	1990	3266.673843052135	5
0	1992	3272.266388776656	6
0	1995	3279.040504338728	7
0	1998	3283.170125236545	8
0	2000	3289.000634427571	9
0	2002	3289.531920309041	10
0	2004	3289.679450533419	11
0	2006	3291.357758441429	10
0	2009	3294.328274033307	11
0	2011	3295.831418785924	10
0	2014	3296.824526821463	11
0	2016	3297.050340728635	10
0	2019	3298.59381112278	11
0	2021	3300.148517516828	10
0	2024	3305.859065855768	11
0	2026	3310.602641703724	10
0	2029	3311.058156513966	11
0	2031	3312.110820945458	10
0	2034	3313.278614648697	11
0	2036	3314.072296978278	10
0	2039	3319.932935536922	11
0	2041	3320.605016433933	12
0	2043	3325.534934268736	13
0	2045	3329.794606794648	12
0	2048	3331.984109272372	13
0	2050	3333.66842323288	12
0	2053	3335.147729490774	13
0	2055	3337.801849931717	12
0	2058	3338.578907774152	13
0	2060	3348.393217678536	12
0	2063	3351.056958380496	13
0	2065	3356.383546614493	12
0	2068	3356.568366611157	11
0	2071	3364.007978338471	10
0	2074	3368.017299735292	11
0	2076	3373.227370145614	12
0	2078	3374.161309885897	11
0	2081	3374.210601960388	12
0	2083	3377.590177187834	13
0	2085	3377.995791773406	14
0	2087	3378.815675730044	13
0	2090	3380.044859927352	14
0	2092	3381.327643153268	13
0	2095	3389.5343265444	12
0	2098	3396.891166526779	13
0	2100	3397.796940548419	12
0	2103	3401.643008042275	11
0	2106	3406.263695700791	12
0	2108	3406.570151200428	11
0	2111	3408.66217944423	10
0	2114	3408.938065884964	9
0	2117	3413.135406732815	8
0	2120	3413.592694625353	7
0	2123	3418.194376384473	8
0	2125	3419.183292386646	7
0	2128	3419.595673683956	8
0	2130	3424.035553976549	7
0	2133	3426.641362147698	8
0	2135	3433.981919643977	7
0	2138	3437.679402917018	6
0	2140	3438.422759490364	5
0	2142	3443.76505037665	6
0	2145	3448.80683405049	7
0	2148	3452.496663636777	6
0	2150	3456.598571022998	5
0	2152	3456.679049878737	4
0	2154	3459.363163767	5
0	2157	3466.662672686537	4
0	2159	3475.649498055146	5
0	2162	3476.558035910451	6
0	2165	3480.592774029375	5
0	2167	3487.232846770454	6
0	2170	3489.11980441445	7
0	2173	3489.855463874273	8
0	2175	3492.39963534779	7
0	2178	3496.309219169645	6
0	2180	3496.387245170892	7
0	2183	3499.279412534727	8
0	2185	3507.078955794682	9
0	2187	3508.035175552627	10
0	2189	3514.864716767151	9
0	2192	3517.515785598644	8
0	2195	3518.264134328541	7
0	2198	3519.38716059146	6
0	2200	3522.306882582423	5
0	2202	3527.594744001346	6
0	2205	3529.535755476362	7
0	2208	3536.404698507026	6
0	2210	3537.785680450713	7
0	2213	3545.239396721842	6
0	2215	3549.734410485745	5
0	2217	3563.624588511444	6
0	2220	3564.732058551693	5
0	2222	3577.476565882956	4
0	2224	3577.52006703734	5
0	2227	3579.243330477114	6
0	2230	3586.643768534271	7
0	2233	3587.534584658208	6
0	2235	3588.292030236904	5
0	2237	3590.47696124136	4
0	2239	3590.934387671751	3
0	2241	3593.669932133066	4
0	2244	3593.833314152778	5
0	2247	3595.585691190578	4
0	2249	3598.983193882548	3
0	2251	3599.708953129954	2
0	2253	3600.974739968656	3
0	2256	3609.348974877457	2
0	2258	3616.741396436174	1
0	2260	3636.369380093779	2
0	2263	3637.488714757406	3
0	2266	3638.971925149275	4
0	2269	3641.158011235756	3
0	2271	3642.954197518356	4
0	2274	3645.185726106919	3
0	2276	3652.748331960279	4
0	2279	3654.243762825003	5
0	2282	3654.452919546501	6
0	2285	3655.654443185915	5
0	2287	3658.422819928886	4
0	2289	3660.924501095937	5
0	2292	3664.137147504591	4
0	2294	3670.535484522395	5
0	2297	3672.294472206659	4
0	2299	3682.508273948168	5
0	2302	3684.125622094116	4
0	2304	3685.969451877813	5
0	2307	3689.134725357593	6
0	2310	3691.344003010478	5
0	2312	3692.19831068063	6
0	2315	3693.746927134987	5
0	2317	3697.487089851116	6
0	2320	3702.457357280452	7
0	2323	3710.605277978431	8
0	2325	3710.747849083213	7
0	2328	3714.74427783212	6
0	2330	3716.018011706619	7
0	2333	3716.221615785516	8
0	2335	3716.653380095109	9
0	2337	3718.003623921845	10
0	2339	3718.291408380491	9
0	2342	3719.670641044447	10
0	2344	3719.681191666711	9
0	2347	3722.500996771825	10
0	2349	3722.597215892798	11
0	2351	3724.547855589804	10
0	2354	3729.949715788023	9
0	2357	3730.065172188476	8
0	2360	3732.905252399082	7
0	2363	3744.881438573589	6
0	2365	3748.142416962958	5
0	2367	3751.278189987548	6
0	2370	3760.027590635228	7
0	2373	3768.625711957363	6
0	2375	3779.583557714419	5
0	2377	3780.138082176421	6
0	2380	3780.618279987595	7
0	2383	3783.501539656138	8
0	2385	3783.541902020313	7
0	2388	3788.279870284211	8
0	2390	3788.796447666508	7
0	2393	3808.658250374259	6
0	2395	3812.175520526489	7
0	2398	3812.837757452825	6
0	2400	3814.085298858138	7
0	2403	3815.506195359982	8
0	2405	3817.693338518061	9
0	2407	3819.620417799686	8
0	2410	3825.930930658654	7
0	2413	3825.958178742192	6
0	2415	3830.726246147664	5
0	2417	3836.876123936856	4
0	2419	3837.488761391734	3
0	2421	3840.082897203306	4
0	2424	3841.537266918464	5
0	2427	3843.528882594213	4
0	2429	3848.671637730112	3
0	2431	3850.199857840742	4
0	2434	3863.968674477811	5
0	2437	3867.089508485671	6
0	2440	3869.545298639353	5
0	2442	3870.488605907534	6
0	2445	3875.87909338906	5
0	2447	3881.119289615807	6
0	2450	3881.125595725492	5
0	2452	3882.339461470727	4
0	2454	3896.727188425517	5
0	2457	3896.909841153504	4
0	2459	3901.734776259837	3
0	2461	3916.805751849001	4
0	2464	3918.306500591697	5
0	2467	3921.615724694325	6
0	2470	3921.732035798868	5
0	2472	3923.831005002905	6
0	2475	3928.468804957483	7
0	2478	3931.834977907049	6
0	2480	3933.201023378628	5
0	2482	3955.96451570069	6
0	2485	3964.413141676135	5
0	2487	3969.225399665853	6
0	2490	3971.917048903231	7
0	2493	3975.099807467572	8
0	2495	3975.730093932587	7
0	2498	3977.257497174946	8
0	2500	3977.502044086547	7
0	2503	3979.031932581717	6
0	2505	3979.902220262276	7
0	2508	3980.822525694698	6
0	2510	3981.987522037699	5
0	2512	3985.860896935634	4
0	2514	3990.459231646265	3
0	2516	3992.195142016545	4
0	2519	3995.510794957773	5
0	2522	4001.462216212127	4
0	2524	4002.778937540188	5
0	2527	4006.541582658965	4
0	2529	4011.609038857402	3
0	2531	4018.860827211478	4
0	2534	4020.538739782708	5
0	2537	4036.777990844507	4
0	2539	4045.409118013406	5
0	2542	4054.97890536637	4
0	2544	4061.257319891225	3
0	2546	4064.787771656738	4
0	2549	4066.127155927289	3
0	2551	4082.900044575232	4
0	2554	4083.754855521708	5
0	2557	4090.261227787481	4
0	2559	4100.651904034967	3
0	2561	4101.742655639282	4
0	2564	4102.579153440191	5
0	2567	4108.478555454763	4
0	2569	4114.644462205883	5
0	2572	4116.028586155411	4
0	2574	4123.09371383094	3
0	2576	4129.890745407746	2
0	2578	4131.286111300456	1
0	2580	4134.580156345038	2
0	2583	4137.875753506882	1
0	2585	4138.914942057609	0
0	2587	4146.243315406084	1
0	2590	4148.401199973985	2
0	2593	4153.075513728425	3
0	2596	4154.469550018003	4
0	2599	4158.721483682568	5
0	2602	4162.728309172593	4
0	2604	4165.482059386589	5
0	2607	4166.580440000086	4
0	2609	4168.128046026439	3
0	2611	4178.218662704683	2
0	2613	4178.403355425419	3
0	2616	4178.424605310816	4
0	2619	4179.928235832833	5
0	2622	4180.261748606143	4
0	2624	4180.284125425139	5
0	2627	4193.379775511676	4
0	2629	4196.685301678864	3
0	2631	4197.645916245468	4
0	2634	4206.014429417401	5
0	2637	4210.593327259242	4
0	2639	4210.922707886965	3
0	2641	4219.76868438155	2
0	2643	4220.504851688184	3
0	2646	4223.162196742958	4
0	2649	4225.518731762185	3
0	2651	4225.572470975641	2
0	2653	4225.733591106387	3
0	2656	4228.080201765721	4
0	2659	4229.642304124577	3
0	2661	4231.11296597812	2
0	2663	4232.163795995803	1
0	2665	4238.159965405395	2
0	2668	4248.446699521385	3
0	2671	4254.18681835579	4
0	2674	4261.55183414537	5
0	2677	4266.745074003382	6
0	2680	4269.809175002537	5
0	2682	4269.84923834732	4
0	2684	4271.272748001788	5
0	2687	4282.622696422485	6
0	2690	4283.706743234883	5
0	2692	4285.431945669014	4
0	2694	4300.339838845567	3
0	2696	4301.6511453613	4
0	2699	4303.977317371422	5
0	2702	4313.090383540258	4
0	2704	4316.797860307198	5
0	2707	4322.042590827392	6
0	2710	4324.962886868867	5
0	2712	4328.556687985187	4
0	2714	4346.815628667076	3
0	2716	4348.860013986983	2
0	2718	4351.416120903635	3
0	2721	4354.93884750177	4
0	2724	4356.684098235123	5
0	2727	4359.191913768358	4
0	2729	4361.566359020631	5
0	2732	4368.189007654733	6
0	2735	4376.964922208096	5
0	2737	4382.21289696375	6
0	2740	4384.323430022287	5
0	2742	4386.844317307068	4
0	2744	4389.040859469061	5
0	2747	4390.130501149886	4
0	2749	4390.455367974806	5
0	2752	4399.953224379587	6
0	2755	4403.863683072586	7
0	2758	4406.328426548309	8
0	2760	4406.700538051782	7
0	2763	4408.162757101287	8
0	2765	4412.072459654455	7
0	2768	4414.103422166573	6
0	2770	4415.753307080308	7
0	2773	4417.151528773714	8
0	2775	4427.434300828663	7
0	2778	4428.187969764686	8
0	2780	4429.304621988531	7
0	2783	4433.462271203262	6
0	2785	4433.605183951774	5
0	2787	4435.37998841474	6
0	2790	4436.283756987947	5
0	2792	4436.438926422639	6
0	2795	4438.677879481544	5
0	2797	4443.288702768633	6
0	2800	4447.91763144298	5
0	2802	4453.92214642505	4
0	2804	4457.245536477312	5
0	2807	4462.593493624885	6
0	2810	4471.015360356355	7
0	2813	4472.012145892972	6
0	2815	4477.634269647931	7
0	2818	4489.270005102897	6
0	2820	4497.119976867733	5
0	2822	4497.734950224354	6
0	2825	4497.819539462359	7
0	2828	4503.036972180846	6
0	2830	4503.755203860236	7
0	2833	4509.704015164887	8
0	2835	4510.842809535541	7
0	2838	4511.853187547232	6
0	2840	4513.844334864626	5
0	2842	4514.33520785506	4
0	2844	4514.379569942852	3
0	2846	4514.915849016081	2
0	2848	4515.891128398713	3
0	2851	4525.762544636834	4
0	2854	4529.190040561601	5
0	2857	4539.102314233441	4
0	2859	4540.504671404447	5
0	2862	4544.686034792007	4
0	2864	4554.170325424463	3
0	2866	4574.834770629047	4
0	2869	4576.937103095811	5
0	2872	4577.407605743044	4
0	2874	4579.382490676954	5
0	2877	4579.819873460904	4
0	2879	4581.381100792381	3
0	2881	4585.563191258178	2
0	2883	4588.71434123423	3
0	2886	4589.683414322319	4
0	2889	4591.196506130611	5
0	2892	4593.892990102584	4
0	2894	4594.866943348829	5
0	2897	4596.426856471851	6
0	2900	4598.067025288249	5
0	2902	4603.070525066864	6
0	2905	4604.18042106984	5
0	2907	4610.311500970259	6
0	2910	4611.639056184257	5
0	2912	4623.194835879278	6
0	2915	4625.689334021181	7
0	2918	4629.657983628079	6
0	2920	4630.968837437879	5
0	2922	4633.698743532356	4
0	2924	4636.849944073929	3
0	2926	4638.162897251337	4
0	2929	4641.698090486698	5
0	2932	4649.084636398777	6
0	2935	4650.895712502471	5
0	2937	4656.677501207631	4
0	2939	4665.078965131174	3
0	2941	4666.053519971689	4
0	2944	4670.269565665987	3
0	2946	4694.16746916047	2
0	2948	4703.859885252238	3
0	2951	4703.932299051862	4
0	2954	4707.601310360951	3
0	2956	4708.836445635501	4
0	2959	4710.998160677915	3
0	2961	4714.261132744096	4
0	2964	4718.208204996936	3
0	2966	4720.743298380131	4
0	2969	4720.760415359725	3
0	2971	4722.853697764782	4
0	2974	4728.141013897936	5
0	2977	4728.557372582562	4
0	2979	4731.220657943849	5
0	2982	4732.396300501494	6
0	2985	4734.382280658541	5
0	2987	4736.904181556448	4
0	2989	4737.572031481393	3
0	2991	4749.864335070284	4
0	2994	4751.664767761809	5
0	2997	4755.190841152894	4
0	2999	4762.250329513326	5
0	3002	4772.772458092059	6
0	3005	4773.812285547661	7
0	3008	4774.849236454299	8
0	3010	4777.0446185992	9
0	3012	4777.939790952113	10
0	3014	4786.535480529473	11
0	3016	4787.001949367856	10
0	3019	4789.728059938981	9
0	3022	4790.636032512702	8
0	3025	4797.974370483956	9
0	3027	4798.909557223744	8
0	3030	4800.163876876499	9
0	3032	4803.099637984738	8
0	3035	4803.489939456838	7
0	3038	4804.341459011186	8
0	3040	4810.978446248237	7
0	3043	4813.484836241774	8
0	3045	4815.589667310903	9
0	3047	4827.990083806187	8
0	3050	4831.137564651386	9
0	3052	4836.131277089019	10
0	3054	4840.058289153708	11
0	3056	4841.100002066488	12
0	3058	4841.424246449304	11
0	3061	4843.865560311858	10
0	3064	4847.999163066435	11
0	3066	4850.31690183102	10
0	3069	4852.440869834029	9
0	3072	4856.055389589663	8
0	3075	4856.281146309144	9
0	3077	4858.9622824868	10
0	3079	4870.203745576816	9
0	3082	4877.312034420332	10
0	3084	4878.241702010092	11
0	3086	4878.605293073024	12
0	3088	4879.639278843681	13
0	3090	4885.785910204905	14
0	3092	4888.736974449561	15
0	3094	4892.486856520404	16
0	3096	4895.236957904133	15
0	3099	4896.437255668106	16
0	3101	4900.292486762958	15
0	3104	4907.198080343934	16
0	3106	4910.63687076694	15
0	3109	4910.782877304139	16
0	3111	4920.121893350676	17
0	3113	4920.16746169438	16
0	3116	4922.196824680422	15
0	3119	4922.479310104583	14
0	3122	4930.138668152681	13
0	3125	4934.294219167071	12
0	3128	4945.101100331588	11
0	3131	4956.137154051523	10
0	3134	4958.896958098246	9
0	3137	4962.956942654553	8
0	3140	4965.444309600142	9
0	3142	4969.131070339614	8
0	3145	4970.756812703229	7
0	3148	4970.824250590759	6
0	3150	4971.930002405527	7
0	3153	4975.263381618227	8
0	3155	4977.753775461361	7
0	3158	4981.234491949586	6
0	3160	4983.886054995165	5
0	3162	4990.514630578157	6
0	3165	4996.079580812539	7
0	3168	4997.368244010905	6
0	3170	5000.637588888199	7
0	3173	5008.635102110598	8
0	3175	5008.88409482432	7
0	3178	5010.741407485508	6
0	3180	5018.367283163577	5
0	3182	5025.377625636076	6
0	3185	5026.391680966243	5
0	3187	5031.399596472442	4
0	3189	5036.00598887853	3
0	3191	5037.890767330005	2
0	3193	5039.070232859423	3
0	3196	5039.862534931988	2
0	3198	5047.220408660034	3
0	3201	5048.478393330584	4
0	3204	5071.65085974942	5
0	3207	5076.285635257031	6
0	3210	5077.289795107533	7
0	3213	5080.390245925149	8
0	3215	5082.785529507163	7
0	3218	5087.24091657225	8
0	3220	5088.625160605627	7
0	3223	5092.704900628019	8
0	3225	5092.943573109991	7
0	3228	5097.461823269651	6
0	3230	5103.06210078521	5
0	3232	5103.433228497272	4
0	3234	5110.81532519141	3
0	3236	5117.750793584469	2
0	3238	5128.176204630517	1
0	3240	5131.30004887527	2
0	3243	5153.200321387812	3
0	3246	5162.668827564603	2
0	3248	5162.87352872814	3
0	3251	5171.282975602774	4
0	3254	5172.735958441223	5
0	3257	5174.304029653471	6
0	3260	5174.78644961161	7
0	3263	5179.882959224839	8
0	3265	5183.495201202251	7
0	3268	5184.593741624185	6
0	3270	5198.317445684608	5
0	3272	5201.280090669398	6
0	3275	5206.840046414469	7
0	3278	5211.469054889658	6
0	3280	5217.029409668246	5
0	3282	5223.482887883763	4
0	3284	5224.985112068133	3
0	3286	5232.447947850927	4
0	3289	5233.620790671513	5
0	3292	5233.985140821469	6
0	3295	5239.958713313652	5
0	3297	5240.427775685367	4
0	3299	5243.828378911396	3
0	3301	5245.91575980948	4
0	3304	5250.658322944673	5
0	3307	5257.276506980246	4
0	3309	5262.685132890956	3
0	3311	5265.856248673284	2
0	3313	5278.167094308593	3
0	3316	5282.001095017231	4
0	3319	5283.266818597295	5
0	3322	5292.656426470568	6
0	3325	5293.583879339478	7
0	3328	5294.849035114965	6
0	3330	5295.591589339229	7
0	3333	5295.981994799977	8
0	3335	5297.464657124297	7
0	3338	5307.842739920782	6
0	3340	5320.758093484006	5
0	3342	5323.026989036348	6
0	3345	5323.612989633743	5
0	3347	5323.647551577774	4
0	3349	5323.730670675981	5
0	3352	5338.684443309909	6
0	3355	5341.794204450787	7
0	3358	5343.538757093112	8
0	3360	5343.670671491234	9
0	3362	5344.924943626501	8
0	3365	5352.660986952993	7
0	3368	5354.965189392745	6
0	3370	5355.386458810704	7
0	3373	5361.016492503246	6
0	3375	5361.24375981268	7
0	3378	5361.37217463169	6
0	3380	5362.411112810849	5
0	3382	5367.856299278248	6
0	3385	5370.690852832305	5
0	3387	5371.209151432093	4
0	3389	5371.292420818433	5
0	3392	5381.182315719327	6
0	3395	5384.287360855616	7
0	3398	5384.853282908329	6
0	3400	5390.032770574359	5
0	3402	5398.143334127766	4
0	3404	5399.351313378433	3
0	3406	5402.190682878644	4
0	3409	5408.25444938245	5
0	3412	5415.20372181574	4
0	3414	5421.144433365488	5
0	3417	5421.795365479862	4
0	3419	5422.02681784044	3
0	3421	5422.728786387137	4
0	3424	5423.710154402641	3
0	3426	5425.054496144388	2
0	3428	5425.980040934196	3
0	3431	5427.232894817315	2
0	3433	5435.623395443954	3
0	3436	5435.685272190474	4
0	3439	5436.779772321468	5
0	3442	5440.516210115105	4
0	3444	5442.432353179418	5
0	3447	5442.536620310681	6
0	3450	5443.724873059518	7
0	3453	5443.760494199565	8
0	3455	5444.026573433963	9
0	3457	5444.129567342704	8
0	3460	5445.743735736262	9
0	3462	5446.441955261827	10
0	3464	5447.680429596555	9
0	3467	5450.004716537715	8
0	3470	5450.528615525341	7
0	3473	5454.411262976092	8
0	3475	5455.986459212083	7
0	3478	5465.149319063692	8
0	3480	5471.240677123856	7
0	3483	5471.427005479644	6
0	3485	5481.299705340653	5
0	3487	5483.2436346893	4
0	3489	5486.909455350008	5
0	3492	5490.354224450866	4
0	3494	5499.330618395493	3
0	3496	5510.479262657381	2
0	3498	5523.974100734414	1
0	3500	5526.09262421695	2
0	3503	5536.410964617879	3
0	3506	5538.173660765255	4
0	3509	5538.988351378246	5
0	3512	5541.571997076242	6
0	3515	5549.34221834579	5
0	3517	5552.268176608791	6
0	3520	5554.351161608494	7
0	3523	5555.02107289084	6
0	3525	5556.317564064744	7
0	3528	5563.361858668224	8
0	3530	5564.508839346225	9
0	3532	5569.365942799546	8
0	3535	5570.015602304181	7
0	3538	5573.742204330637	6
0	3540	5585.585575586375	7
0	3543	5587.197061979818	8
0	3545	5589.925116674998	7
0	3548	5593.283269188101	6
0	3550	5593.559239402446	5
0	3552	5594.047460157228	4
0	3554	5597.447076731659	3
0	3556	5597.99870742606	4
0	3559	5599.230169247557	5
0	3562	5602.592670666887	6
0	3565	5610.889968583102	5
0	3567	5610.946961636489	4
0	3569	5612.871134195476	3
0	3571	5616.459116762848	4
0	3574	5629.780429450438	3
0	3576	5630.615010123254	4
0	3579	5649.958501121276	5
0	3582	5653.98763155305	6
0	3585	5660.810897658108	5
0	3587	5665.778691191155	4
0	3589	5669.506698568445	5
0	3592	5672.171854699466	4
0	3594	5673.377841789637	5
0	3597	5674.972927612155	4
0	3599	5676.130145562325	3
0	3601	5677.464617385731	2
0	3603	5680.34991753441	3
0	3606	5680.469809853379	4
0	3609	5683.82890981454	5
0	3612	5690.835799871621	6
0	3615	5692.358651483424	5
0	3617	5701.150806311143	6
0	3620	5701.650531570637	5
0	3622	5713.822896753796	4
0	3624	5715.318523152722	5
0	3627	5724.997248005155	4
0	3629	5730.285755831715	5
0	3632	5732.211783868848	6
0	3635	5741.70672602703	7
0	3638	5741.754673707983	6
0	3640	5744.526865854144	7
0	3643	5745.083118804521	6
0	3645	5751.43323507217	5
0	3647	5757.689093481493	6
0	3650	5758.683426154744	7
0	3653	5759.679655680545	6
0	3655	5761.687887213279	5
0	3657	5764.371911910988	4
0	3659	5767.249738873409	3
0	3661	5786.558278666443	4
0	3664	5791.501269855951	5
0	3667	5792.327494193061	6
0	3670	5795.068175395032	5
0	3672	5803.077216199909	6
0	3675	5803.70439808699	7
0	3678	5810.510298994596	6
0	3680	5811.810051023511	7
0	3683	5818.569667838658	6
0	3685	5819.155524065829	5
0	3687	5823.40425260899	6
0	3690	5826.601150501552	7
0	3693	5828.13669564587	8
0	3695	5829.284326672544	9
0	3697	5829.290835501883	10
0	3699	5830.842576667587	9
0	3702	5835.867470431586	8
0	3705	5836.332640945578	7
0	3708	5836.784561264789	8
0	3710	5839.383229346666	7
0	3713	5842.232260371737	8
0	3715	5842.341657443739	7
0	3718	5849.971020047089	6
0	3720	5853.72821188337	7
0	3723	5857.266163558296	6
0	3725	5867.656401590207	5
0	3727	5874.865844860051	6
0	3730	5875.362737093514	5
0	3732	5875.516664137136	4
0	3734	5881.779939517129	5
0	3737	5881.791286879956	4
0	3739	5889.890456733154	5
0	3742	5894.23065142341	4
0	3744	5896.124806900704	3
0	3746	5896.326382359071	4
0	3749	5897.494908688338	5
0	3752	5901.035703145344	6
0	3755	5912.396637084933	5
0	3757	5916.115605760163	6
0	3760	5923.67733418926	7
0	3763	5925.093022053081	8
0	3765	5925.850690014088	7
0	3768	5932.001278716038	8
0	3770	5932.55843799153	9
0	3772	5933.452093472918	10
0	3774	5939.205846819841	11
0	3776	5942.651543716872	10
0	3779	5944.896222043713	9
0	3782	5952.232606812083	10
0	3784	5952.811587018848	11
0	3786	5953.965104016854	12
0	3788	5958.553124571166	11
0	3791	5962.173041985748	12
0	3793	5963.409664584455	11
0	3796	5970.259804919475	10
0	3799	5972.380924203319	11
0	3801	5975.159601542943	10
0	3804	5975.925078032926	11
0	3806	5981.602102111786	10
0	3809	5981.679689592646	11
0	3811	5982.396011717249	10
0	3814	5989.956660000399	9
0	3817	5989.95696693024	10
0	3819	5996.066563612292	11
0	3821	5998.994006598251	10
0	3824	6000.53076961903	11
0	3826	6002.470705383201	10
0	3829	6008.028574924982	9
0	3832	6009.561311618528	10
0	3834	6009.615156684639	9
0	3837	6010.039003432425	8
0	3840	6010.86180650561	7
0	3843	6011.303295764454	8
0	3845	6014.066100025694	9
0	3847	6015.020941549843	10
0	3849	6015.22487581173	9
0	3852	6015.783482887225	8
0	3855	6027.767937113318	7
0	3858	6034.315792809822	8
0	3860	6036.110296999735	7
0	3863	6039.890576042113	8
0	3865	6041.416261718519	7
0	3868	6042.579129520695	8
0	3870	6052.317774390547	9
0	3872	6061.517549383616	8
0	3875	6063.610740299714	9
0	3877	6065.555081891317	8
0	3880	6068.391246719259	7
0	3883	6074.273015375644	6
0	3885	6077.184051940822	7
0	3888	6078.538015248486	6
0	3890	6106.963171919586	5
0	3892	6114.882334308267	4
0	3894	6120.867714866429	3
0	3896	6129.729667428563	2
0	3898	6129.754697085818	3
0	3901	6131.921738193046	2
0	3903	6141.978158336938	3
0	3906	6142.612387858693	4
0	3909	6150.205250691423	3
0	3911	6155.479304924	4
0	3914	6156.144144755473	5
0	3917	6157.354020240116	6
0	3920	6160.120500512955	7
0	3923	6160.740469576413	8
0	3925	6164.05827569456	9
0	3927	6169.605942336825	10
0	3929	6170.677176670056	9
0	3932	6173.469873835574	8
0	3935	6179.935706584766	9
0	3937	6182.301034079028	10
0	3939	6186.389046702482	9
0	3942	6189.267405705438	8
0	3945	6192.369532602923	9
0	3947	6196.510995137225	8
0	3950	6200.166012542883	7
0	3953	6201.626914400104	6
0	3955	6206.808412195854	5
0	3957	6211.885405072411	4
0	3959	6212.610318879688	3
0	3961	6215.657560696982	2
0	3963	6231.303651881322	3
0	3966	6234.749507113199	4
0	3969	6238.357111617036	3
0	3971	6242.106368132689	2
0	3973	6244.617656183598	1
0	3975	6246.982137915465	2
0	3978	6248.20958312882	3
0	3981	6255.962973101101	4
0	3984	6267.211165781849	5
0	3987	6268.54839185342	6
0	3990	6268.649107419215	5
0	3992	6272.817159550207	4
0	3994	6279.805731563962	5
0	3997	6291.818982843913	6
0	4000	6293.502743124688	7
0	4003	6299.299683078584	8
0	4005	6304.765138739393	7
0	4008	6308.731180208235	6
0	4010	6308.96624828065	7
0	4013	6311.284933041714	8
0	4015	6318.839582243483	7
0	4018	6319.429886821454	8
0	4020	6322.375903159162	7
0	4023	6326.030872379933	8
0	4025	6328.432951859552	7
0	4028	6328.659206989349	6
0	4030	6328.679912976792	7
0	4033	6332.711072081913	6
0	4035	6334.811781359292	5
0	4037	6337.275791215381	4
0	4039	6340.259277340482	5
0	4042	6340.699986599447	4
0	4044	6346.299425136835	3
0	4046	6347.648926330429	4
0	4049	6358.645388257247	3
0	4051	6362.067148218364	4
0	4054	6365.890040160292	3
0	4056	6378.664553618263	4
0	4059	6379.678567397688	5
0	4062	6379.757683259996	4
0	4064	6383.56950537474	3
0	4066	6390.188727830902	4
0	4069	6403.784276572144	5
0	4072	6405.017400464883	6
0	4075	6407.589505005387	7
0	4078	6407.930524668941	6
0	4080	6414.695231188725	7
0	4083	6416.711410631348	8
0	4085	6421.443424798854	9
0	4087	6425.006974946285	8
0	4090	6428.802147036392	7
0	4093	6433.025947650548	6
0	4095	6436.805849726208	7
0	4098	6437.190381385456	8
0	4100	6437.311622646592	7
0	4103	6438.344258730058	6
0	4105	6439.684252123177	7
0	4108	6442.510609075512	6
0	4110	6444.883597544904	5
0	4112	6449.926057178838	6
0	4115	6450.145468564559	7
0	4118	6453.737317655507	8
0	4120	6457.455839262668	9
0	4122	6463.619528114076	8
0	4125	6469.016954338645	7
0	4128	6477.078578835986	8
0	4130	6486.341367556104	9
0	4132	6488.240958048738	10
0	4134	6492.271232111612	11
0	4136	6494.584791109587	10
0	4139	6495.59168702929	9
0	4142	6501.476320235418	8
0	4145	6503.396352998723	7
0	4148	6509.278133031224	8
0	4150	6510.267439147913	7
0	4153	6513.611900281862	6
0	4155	6513.912390392612	5
0	4157	6518.85572463446	4
0	4159	6519.195642549897	3
0	4161	6519.463997505172	4
0	4164	6529.179323317258	5
0	4167	6538.100646659427	4
0	4169	6542.401445320386	5
0	4172	6545.257564953716	6
0	4175	6548.575958718307	5
0	4177	6551.835911313233	4
0	4179	6553.385612078335	5
0	4182	6558.494082931164	4
0	4184	6558.743398833374	3
0	4186	6560.835352207136	4
0	4189	6561.769440560249	3
0	4191	6562.371106052122	2
0	4193	6566.841798946855	3
0	4196	6567.952178696724	4
0	4199	6575.055589221361	5
0	4202	6580.230498538513	6
0	4205	6582.812360314939	5
0	4207	6583.859532567009	4
0	4209	6589.320994627056	5
0	4212	6591.516368537255	4
0	4214	6600.670619947739	5
0	4217	6606.414629513751	4
0	4219	6611.46301698956	5
0	4222	6613.83271730384	4
0	4224	6620.177051178999	3
0	4226	6621.859048224811	2
0	4228	6623.386425124554	3
0	4231	6625.800265400649	2
0	4233	6626.276079509065	3
0	4236	6628.562666165239	4
0	4239	6630.732714404816	5
0	4242	6648.182122939361	6
0	4245	6649.781066129587	7
0	4248	6650.111498650192	8
0	4250	6650.675508440833	9
0	4252	6651.802499615358	10
0	4254	6655.14458249782	11
0	4256	6656.398528394616	12
0	4258	6658.875106503059	11
0	4261	6662.445698428009	12
0	4263	6662.463355364293	13
0	4265	6666.602747259156	14
0	4267	6667.063038926032	13
0	4270	6671.336254265386	14
0	4272	6675.155605802673	15
0	4274	6677.204990069743	16
0	4276	6677.304863152606	15
0	4279	6684.073589567854	14
0	4282	6686.682651614271	13
0	4285	6691.603629098207	12
0	4288	6692.588436640715	11
0	4291	6699.794877332685	10
0	4294	6701.110332663739	9
0	4297	6706.188749477825	8
0	4300	6707.143559962138	9
0	4302	6708.530968545693	10
0	4304	6712.345416246742	9
0	4307	6714.251619288621	10
0	4309	6723.128615661435	9
0	4312	6729.059284393772	8
0	4315	6737.317428876457	7
0	4318	6742.647503989561	8
0	4320	6749.176509399206	7
0	4323	6753.870189350323	8
0	4325	6758.268471453945	7
0	4328	6762.422896069889	8
0	4330	6778.360766406658	7
0	4333	6782.056265211441	6
0	4335	6786.435266532203	7
0	4338	6786.649748610531	6
0	4340	6788.826337040102	5
0	4342	6790.084636889601	6
0	4345	6795.935618131055	5
0	4347	6801.163639616235	6
0	4350	6817.553285890014	5
0	4352	6824.402684605907	4
0	4354	6829.452714426469	3
0	4356	6832.396719045475	4
0	4359	6836.392849648306	3
0	4361	6839.098082540212	4
0	4364	6842.78959309741	3
0	4366	6848.525277230414	4
0	4369	6848.717389121581	3
0	4371	6853.330908610561	2
0	4373	6853.742867408659	3
0	4376	6859.208392551225	4
0	4379	6862.735501381977	5
0	4382	6869.459570717173	6
0	4385	6871.045294168534	5
0	4387	6872.245402542588	4
0	4389	6874.588866371769	5
0	4392	6875.290223634213	4
0	4394	6876.87867792617	3
0	4396	6884.358982650364	4
0	4399	6893.525460923959	5
0	4402	6907.76307161884	6
0	4405	6908.017505181911	7
0	4408	6917.228624842655	8
0	4410	6919.415361185187	7
0	4413	6919.768952166657	8
0	4415	6922.177460305714	7
0	4418	6924.681405648682	6
0	4420	6927.10623799745	5
0	4422	6928.611328669545	4
0	4424	6932.397562266492	5
0	4427	6935.02401956133	4
0	4429	6947.603115057303	5
0	4432	6956.839722891123	4
0	4434	6958.757123307911	5
0	4437	6960.722664482153	4
0	4439	6968.408389271288	5
0	4442	6971.702422277005	6
0	4445	6972.341876615694	7
0	4448	6973.487630089387	6
0	4450	6982.853113020365	5
0	4452	6983.438110078454	6
0	4455	6990.643780923798	5
0	4457	6991.246416799156	6
0	4460	6992.364441748408	7
0	4463	6992.410894514335	8
0	4465	6992.951631622122	7
0	4468	6994.996932940738	8
0	4470	6995.016648051355	9
0	4472	7007.923459147193	8
0	4475	7010.322820875002	7
0	4478	7020.236153218621	8
0	4480	7020.778898319499	7
0	4483	7022.975893917575	6
0	4485	7027.333090706135	7
0	4488	7031.246691368912	8
0	4490	7035.848056112903	9
0	4492	7036.233447599388	8
0	4495	7039.657041565317	7
0	4498	7043.286525097645	8
0	4500	7045.095440081148	9
0	4502	7053.170667305708	10
0	4504	7055.977805958762	9
0	4507	7062.016983594304	10
0	4509	7064.369982506895	11
0	4511	7065.859124971372	10
0	4514	7071.565215420584	11
0	4516	7074.173060359309	10
0	4519	7074.780858331576	9
0	4522	7075.015703153932	8
0	4525	7077.830300974252	7
0	4528	7079.474264943408	6
0	4530	7083.666085847578	7
0	4533	7088.386346364734	8
0	4535	7089.729194826549	9
0	4537	7090.129171227458	10
0	4539	7091.478039509232	11
0	4541	7098.051605291859	12
0	4543	7099.796152031826	11
0	4546	7102.717236710711	12
0	4548	7105.241867314964	13
0	4550	7111.061673236299	12
0	4553	7119.561671138467	11
0	4556	7120.271778231795	12
0	4558	7122.332570751241	13
0	4560	7125.279997938857	14
0	4562	7127.761360147734	15
0	4564	7129.620340761943	14
0	4567	7130.98832417119	13
0	4570	7134.984124566148	14
0	4572	7135.219122357056	13
0	4575	7136.481564333199	14
0	4577	7142.519116514283	15
0	4579	7150.803954467027	14
0	4582	7151.353365804165	13
0	4585	7155.471118856041	14
0	4587	7155.903996232658	13
0	4590	7156.09088340424	14
0	4592	7157.601235664881	15
0	4594	7158.934570474867	16
0	4596	7160.271470795434	15
0	4599	7164.531355415853	14
0	4602	7173.310092220955	13
0	4605	7182.745851603631	12
0	4608	7187.095123699222	13
0	4610	7189.659519593785	14
0	4612	7190.505763894311	15
0	4614	7197.344186284281	14
0	4617	7204.78011734121	13
0	4620	7205.167788251244	14
0	4622	7205.397980364113	15
0	4624	7215.498182381384	14
0	4627	7219.046810595635	15
0	4629	7221.487435719441	14
0	4632	7225.756389059721	13
0	4635	7234.159794567987	12
0	4638	7237.244210247826	11
0	4641	7245.368941515625	12
0	4643	7248.56919831583	13
0	4645	7251.352298702638	12
0	4648	7251.682471919147	13
0	4650	7251.788596489424	12
0	4653	7254.070639475447	13
0	4655	7254.951010351586	14
0	4657	7255.157686133256	13
0	4660	7259.362691981537	14
0	4662	7265.024744068233	13
0	4665	7265.098868112702	12
0	4668	7270.186031425534	13
0	4670	7281.427741744507	14
0	4672	7282.7192187097	13
0	4675	7283.212221392137	12
0	4678	7283.750232755576	13
0	4680	7285.914325940004	12
0	4683	7286.560704782939	11
0	4686	7287.630485471794	10
0	4689	7299.727570701968	9
0	4692	7300.132350929669	10
0	4694	7303.161740806914	9
0	4697	7305.162637932376	10
0	4699	7306.109997540413	11
0	4701	7307.823100073692	12
0	4703	7309.43172556874	13
0	4705	7309.78647627015	12
0	4708	7310.086837247765	11
0	4711	7318.861460071952	10
0	4714	7319.997933913622	9
0	4717	7321.019227701422	10
0	4719	7328.403564251374	9
0	4722	7332.422291041659	10
0	4724	7334.09292422479	9
0	4727	7334.728172835976	8
0	4730	7335.446972272036	9
0	4732	7335.577662601394	10
0	4734	7336.592243195772	11
0	4736	7336.717775949942	10
0	4739	7339.782608168813	11
0	4741	7340.634566163498	12
0	4743	7342.28201237164	11
0	4746	7345.430153598442	10
0	4749	7347.754446786894	9
0	4752	7348.09042696217	8
0	4755	7349.248627689282	9
0	4757	7350.978372440131	10
0	4759	7358.509499558336	9
0	4762	7369.043167317516	10
0	4764	7370.723555369189	9
0	4767	7386.297128395007	10
0	4769	7386.720999164491	9
0	4772	7390.186316447846	8
0	4775	7390.775157139132	7
0	4778	7391.84870524331	8
0	4780	7395.257764841394	7
0	4783	7395.365832201566	8
0	4785	7397.767321815441	7
0	4788	7411.815260390243	6
0	4790	7415.396048341633	5
0	4792	7418.545206485112	6
0	4795	7429.210501195744	5
0	4797	7432.289515932086	6
0	4800	7439.892947057107	7
0	4803	7439.93061500756	6
0	4805	7446.348601098717	5
0	4807	7448.4977849465	6
0	4810	7449.888249256897	7
0	4813	7451.647204526125	6
0	4815	7455.784130897903	7
0	4818	7460.584370616035	6
0	4820	7461.045470798439	7
0	4823	7465.694079096639	6
0	4825	7466.814461178477	7
0	4828	7470.985172349804	6
0	4830	7471.752952605102	5
0	4832	7478.57730685244	6
0	4835	7480.766681880898	7
0	4838	7486.897518246502	8
0	4840	7491.244891895281	7
0	4843	7492.63506372646	6
0	4845	7504.25368173955	5
0	4847	7504.263748485009	4
0	4849	7517.377887474801	5
0	4852	7518.678636811773	4
0	4854	7519.048928200716	3
0	4856	7521.792374156186	4
0	4859	7526.279395421322	3
0	4861	7533.16151368889	2
0	4863	7536.676085291504	3
0	4866	7538.250194035098	4
0	4869	7550.032825270756	3
0	4871	7553.640632935423	4
0	4874	7554.841051733934	5
0	4877	7560.124199822743	6
0	4880	7565.394829417041	7
0	4883	7565.500187113689	8
0	4885	7569.515216363017	7
0	4888	7569.810376716367	6
0	4890	7575.187455615641	5
0	4892	7578.068024030325	6
0	4895	7585.484068667943	7
0	4898	7592.850537882929	8
0	4900	7593.144861455617	7
0	4903	7594.833764568983	8
0	4905	7596.571888737505	9
0	4907	7599.8284224994	8
0	4910	7605.554527133831	9
0	4912	7611.879866533986	10
0	4914	7614.407562881735	9
0	4917	7629.204141589816	10
0	4919	7636.226828238501	9
0	4922	7640.009562198847	8
0	4925	7640.287544390834	9
0	4927	7640.643931987958	10
0	4929	7643.737429351449	9
0	4932	7644.346435933116	8
0	4935	7644.907081549959	7
0	4938	7647.647172348737	6
0	4940	7649.630684941235	7
0	4943	7652.829760978992	8
0	4945	7656.872813596028	7
0	4948	7657.186336189489	6
0	4950	7657.616361380814	7
0	4953	7660.490607115092	8
0	4955	7669.406937116128	7
0	4958	7669.61104562256	8
0	4960	7671.784472636506	9
0	4962	7673.536580818998	10
0	4964	7677.550643387112	9
0	4967	7679.699038016164	8
0	4970	7681.297687968861	7
0	4973	7681.608419345081	6
0	4975	7687.850620918049	5
0	4977	7692.781283160799	4
0	4979	7693.783612914533	3
0	4981	7698.030074551229	4
0	4984	7698.902532175637	3
0	4986	7700.059507746219	2
0	4988	7701.825555416994	3
0	4991	7717.909843983496	4
0	4994	7725.441226433713	5
0	4997	7726.349303473426	4
0	4999	7746.199892196586	3
0	5001	7751.735684840716	4
0	5004	7759.428993707244	5
0	5007	7761.284062913238	4
0	5009	7762.708332383098	3
0	5011	7766.120498904938	4
0	5014	7769.066605773906	3
0	5016	7778.797724236077	4
0	5019	7787.935860425336	5
0	5022	7789.880522823346	6
0	5025	7791.757540950296	7
0	5028	7798.770605603376	8
0	5030	7802.197785701446	7
0	5033	7803.235575442496	6
0	5035	7805.581038007382	7
0	5038	7806.613735740252	6
0	5040	7806.734621768618	5
0	5042	7807.096413834887	4
0	5044	7812.146836405821	5
0	5047	7821.165958698547	6
0	5050	7834.054011145826	7
0	5053	7840.178005983915	6
0	5055	7840.264418573831	7
0	5058	7843.681123333998	8
0	5060	7843.698396076946	7
0	5063	7855.805029987646	6
0	5065	7864.213480633449	5
0	5067	7865.172275313607	4
0	5069	7868.26485619828	5
0	5072	7872.929804755461	4
0	5074	7875.853073040023	3
0	5076	7877.638374874914	2
0	5078	7881.134772083202	1
0	5080	7883.18378605519	2
0	5083	7884.641009694147	3
0	5086	7886.246272704364	4
0	5089	7888.430999278852	5
0	5092	7888.532678016583	6
0	5095	7889.152781245954	7
0	5098	7891.454750058169	6
0	5100	7897.892257744074	5
0	5102	7901.340536493923	6
0	5105	7902.127263611943	5
0	5107	7909.096128336144	4
0	5109	7910.783416357482	3
0	5111	7914.542124888082	4
0	5114	7916.71795695493	5
0	5117	7923.288032233357	4
0	5119	7923.574259867492	5
0	5122	7927.096629913932	4
0	5124	7934.079076448131	3
0	5126	7942.189350384091	2
0	5128	7945.809472447994	3
0	5131	7965.726236157586	2
0	5133	7975.760869872227	3
0	5136	7980.253905149162	2
0	5138	7981.805900434485	3
0	5141	7985.764269643311	4
0	5144	7986.468428245953	5
0	5147	7986.828292099388	4
0	5149	7988.54544201026	5
0	5152	7993.783148598663	6
0	5155	8003.779764075378	5
0	5157	8007.794879214063	4
0	5159	8007.910011962451	3
0	5161	8012.97523247788	2
0	5163	8024.147981390481	3
0	5166	8025.41831125933	4
0	5169	8028.485935594393	3
0	5171	8033.21965327816	4
0	5174	8048.624873628895	5
0	5177	8050.270192587569	4
0	5179	8052.654421855651	5
0	5182	8063.940330521533	4
0	5184	8064.302689902299	3
0	5186	8069.391654015699	4
0	5189	8077.925703141902	5
0	5192	8080.114510623444	6
0	5195	8086.427937415736	5
0	5197	8094.065599447389	4
0	5199	8095.40835155686	5
0	5202	8095.771748670627	4
0	5204	8097.947867885412	3
0	5206	8097.9707931362	2
0	5208	8105.829593711069	3
0	5211	8114.696932880758	4
0	5214	8120.779306277738	3
0	5216	8128.705827971972	4
0	5219	8132.195074466584	3
0	5221	8134.740519234586	4
0	5224	8136.02640402534	5
0	5227	8143.633822272415	4
0	5229	8146.231355743868	3
0	5231	8155.0801024831	4
0	5234	8155.087313045189	5
0	5237	8157.981823056178	4
0	5239	8161.523346896965	3
0	5241	8166.567937388929	2
0	5243	8181.850567080043	3
0	5246	8183.015206639177	4
0	5249	8192.463113902786	5
0	5252	8192.595290430543	6
0	5255	8195.119019454062	7
0	5258	8197.293666952807	8
0	5260	8200.641097030359	9
0	5262	8202.083790867869	10
0	5264	8207.477977617244	11
0	5266	8209.638387167867	10
0	5269	8209.826668077942	11
0	5271	8212.439761129955	12
0	5273	8218.212635272663	11
0	5276	8220.343534389399	10
0	5279	8221.523388102579	9
0	5282	8221.862263934964	10
0	5284	8225.203823701382	9
0	5287	8228.993444534991	8
0	5290	8230.799504009757	9
0	5292	8235.138448425121	10
0	5294	8239.073608146412	11
0	5296	8239.909513157115	12
0	5298	8251.001075492236	11
0	5301	8262.470197564679	12
0	5303	8263.183740330706	11
0	5306	8266.677974877443	12
0	5308	8271.040214229125	11
0	5311	8271.762790424425	12
0	5313	8271.786934986936	11
0	5316	8276.037943363443	10
0	5319	8279.840381376239	9
0	5322	8281.930571089957	10
0	5324	8282.228208666175	9
0	5327	8287.526293737366	10
0	5329	8288.347181520262	11
0	5331	8293.051435922881	12
0	5333	8305.800083278678	13
0	5335	8308.421184144179	14
0	5337	8315.3539282739	13
0	5340	8316.059755035743	12
0	5343	8316.182568584829	13
0	5345	8319.394822285659	12
0	5348	8323.737333759858	13
0	5350	8330.255297429904	12
0	5353	8333.599064800366	13
0	5355	8346.297816035302	14
0	5357	8347.371964059002	15
0	5359	8351.858863757125	16
0	5361	8357.520383429697	15
0	5364	8361.255509053354	16
0	5366	8366.695678521524	17
0	5368	8376.966760594527	16
0	5371	8384.129487577687	17
0	5373	8384.301539621417	18
0	5375	8386.013520040535	17
0	5378	8387.075189605774	18
0	5380	8393.024009996433	19
0	5382	8395.716376144677	18
0	5385	8405.246150324888	19
0	5387	8410.41321367582	20
0	5389	8412.904536001693	21
0	5391	8413.963848374745	20
0	5394	8418.460638279003	21
0	5396	8420.113656607162	20
0	5399	8424.597752151349	19
0	5402	8426.304174838906	18
0	5405	8429.810287434235	19
0	5407	8431.277438889673	18
0	5410	8432.337549912389	17
0	5413	8433.793064128917	18
0	5415	8441.6263862504	19
0	5417	8442.208575553669	18
0	5420	8444.097331542338	17
0	5423	8444.186780679084	16
0	5426	8445.915861717957	15
0	5429	8447.620519537469	16
0	5431	8453.828927572826	15
0	5434	8459.674721569733	14
0	5437	8462.951449321205	15
0	5439	8466.262231452867	14
0	5442	8467.95553137105	15
0	5444	8470.055653547565	14
0	5447	8472.700527701457	15
0	5449	8476.787056960583	14
0	5452	8478.822612093428	13
0	5455	8479.595533123204	12
0	5458	8485.784801415727	11
0	5461	8488.37374339354	10
0	5464	8491.214740652794	9
0	5467	8494.308239289802	10
0	5469	8498.839522088155	11
0	5471	8499.388651722263	10
0	5474	8504.473547101199	11
0	5476	8509.064068941636	10
0	5479	8517.169709573416	11
0	5481	8526.075744567925	10
0	5484	8526.969901529162	9
0	5487	8528.457274113941	8
0	5490	8528.863822895873	7
0	5493	8532.222652576174	8
0	5495	8532.9409999814	7
0	5498	8536.395355714657	8
0	5500	8546.010464726011	9
0	5502	8546.154213716864	10
0	5504	8551.11186236481	9
0	5507	8551.537912756846	10
0	5509	8554.208319354601	11
0	5511	8554.265860190586	12
0	5513	8559.37991303056	11
0	5516	8562.039686615107	10
0	5519	8564.344719469311	11
0	5521	8564.802336943726	12
0	5523	8581.006160387138	11
0	5526	8581.632213167316	10
0	5529	8582.090506755391	11
0	5531	8587.475099818543	10
0	5534	8588.667605158288	9
0	5537	8591.013080973815	8
0	5540	8593.264804464683	7
0	5543	8594.479995863186	6
0	5545	8595.963893275475	5
0	5547	8599.631906605655	4
0	5549	8600.540222541056	5
0	5552	8620.062282114214	6
0	5555	8622.293706914567	5
0	5557	8627.519916959543	6
0	5560	8631.175290585637	5
0	5562	8634.251451083046	4
0	5564	8638.666416356913	3
0	5566	8644.126360665309	2
0	5568	8644.839015348583	3
0	5571	8645.899605625742	2
0	5573	8653.59450842083	3
0	5576	8654.700835890336	4
0	5579	8657.132161305585	5
0	5582	8657.291778026713	6
0	5585	8663.271831535791	5
0	5587	8665.126463116966	4
0	5589	8666.198889715923	5
0	5592	8667.70318364706	6
0	5595	8667.893587399623	5
0	5597	8670.531237679901	6
0	5600	8677.452823839925	5
0	5602	8685.033084708998	6
0	5605	8685.438231738749	5
0	5607	8690.047426555851	6
0	5610	8698.533898575287	5
0	5612	8700.077194950929	6
0	5615	8700.950809879036	5
0	5617	8702.283760225123	6
0	5620	8704.464544628939	5
0	5622	8711.065282711162	6
0	5625	8717.216865932954	7
0	5628	8717.259717115591	6
0	5630	8721.324990110553	5
0	5632	8729.225077535762	4
0	5634	8735.680612985018	5
0	5637	8736.446017533717	6
0	5640	8740.159869496929	7
0	5643	8748.556764135012	8
0	5645	8751.90585518941	7
0	5648	8759.94349466806	6
0	5650	8761.018480358039	7
0	5653	8761.596399509437	6
0	5655	8763.665504420963	7
0	5658	8767.523591505785	6
0	5660	8770.556059584954	5
0	5662	8790.889396945543	6
0	5665	8796.957833585477	5
0	5667	8803.416884315284	6
0	5670	8803.675296690801	5
0	5672	8804.265469867633	4
0	5674	8804.294803274125	3
0	5676	8809.600102082514	4
0	5679	8811.393684929245	5
0	5682	8811.539065061739	6
0	5685	8812.967812758767	5
0	5687	8816.375539356498	4
0	5689	8819.547661604689	3
0	5691	8832.669421342433	4
0	5694	8836.199299711075	3
0	5696	8837.389241995011	4
0	5699	8839.709233015007	3
0	5701	8841.754330273117	4
0	5704	8841.923005945049	3
0	5706	8852.179708423118	4
0	5709	8853.303495176914	3
0	5711	8860.436877930086	4
0	5714	8866.342717529795	3
0	5716	8869.015246669589	2
0	5718	8881.813405292905	3
0	5721	8881.861657943895	2
0	5723	8885.91609248595	3
0	5726	8886.961583817371	4
0	5729	8890.085391891158	5
0	5732	8894.268670719796	4
0	5734	8898.663284763513	5
0	5737	8898.910245895743	6
0	5740	8900.985889128615	5
0	5742	8905.825367237995	6
0	5745	8916.745545374545	7
0	5748	8919.8656436262	6
0	5750	8922.448115815277	5
0	5752	8923.228446100753	6
0	5755	8931.11843902598	5
0	5757	8931.679716511692	6
0	5760	8933.282196078149	5
0	5762	8934.373008329612	4
0	5764	8948.337401293576	3
0	5766	8948.972769602409	4
0	5769	8950.951531231584	5
0	5772	8951.649219822456	4
0	5774	8952.327796670973	5
0	5777	8956.825835321682	6
0	5780	8957.13097885048	7
0	5783	8957.822334979665	6
0	5785	8964.054188011658	7
0	5788	8965.660272065243	8
0	5790	8967.077924578034	9
0	5792	8969.51049678184	8
0	5795	8976.940010069766	7
0	5798	8977.562069984531	8
0	5800	8979.748198381422	7
0	5803	8981.975132102368	8
0	5805	8987.041894997763	9
0	5807	8987.150071343079	10
0	5809	8995.530034411451	9
0	5812	9014.81087465027	8
0	5815	9016.442874393103	7
0	5818	9016.512975373866	6
0	5820	9017.830402921567	7
0	5823	9021.591312605551	6
0	5825	9022.251382440174	5
0	5827	9025.23904505988	4
0	5829	9029.539463868046	3
0	5831	9034.91851864221	4
0	5834	9036.660113229493	3
0	5836	9037.819911924282	2
0	5838	9038.418007066016	3
0	5841	9044.800689652582	4
0	5844	9048.358140270499	5
0	5847	9061.254838677	6
0	5850	9063.152107925541	7
0	5853	9066.579586136625	8
0	5855	9067.273848269133	9
0	5857	9067.381835893786	10
0	5859	9069.402948480239	11
0	5861	9069.895164440466	12
0	5863	9070.310936826806	11
0	5866	9072.499241338572	10
0	5869	9079.846031981761	11
0	5871	9081.173332589285	10
0	5874	9082.711865604319	9
0	5877	9082.949858208775	8
0	5880	9085.120630331708	7
0	5883	9090.702406294168	6
0	5885	9092.070592711737	7
0	5888	9093.135731230489	6
0	5890	9093.322818760213	7
0	5893	9095.089773100648	8
0	5895	9096.040375491808	7
0	5898	9098.64872479528	6
0	5900	9100.367461474718	5
0	5902	9101.305530076494	6
0	5905	9108.102839586846	7
0	5908	9112.217543837002	6
0	5910	9115.370919376127	7
0	5913	9115.780510618236	6
0	5915	9123.191418268818	7
0	5918	9126.063488564747	8
0	5920	9133.102759220284	9
0	5922	9133.163362603297	8
0	5925	9133.27916527734	9
0	5927	9134.949242907682	8
0	5930	9138.799776534782	9
0	5932	9139.551577579445	8
0	5935	9139.999633545316	7
0	5938	9140.896147752495	6
0	5940	9143.317030885437	7
0	5943	9149.487157554143	8
0	5945	9149.752960440357	7
0	5948	9150.674891364431	8
0	5950	9151.167775186314	7
0	5953	9155.018155443314	8
0	5955	9159.712243970855	9
0	5957	9160.233703446373	8
0	5960	9160.814161955812	7
0	5963	9162.073790800815	8
0	5965	9162.86838722748	7
0	5968	9174.109636696156	6
0	5970	9177.035846561224	7
0	5973	9179.543320226718	6
0	5975	9184.123776259645	5
0	5977	9184.731473361867	6
0	5980	9185.889678526074	7
0	5983	9187.291695263098	8
0	5985	9194.822365366427	7
0	5988	9196.288611158684	8
0	5990	9197.306473980111	7
0	5993	9199.398548278012	8
0	5995	9206.5976907465	7
0	5998	9207.6283558669	6
0	6000	9208.045243260088	5
0	6002	9208.115673225768	6
0	6005	9209.979839995269	7
0	6008	9217.573260836736	6
0	6010	9220.887205324448	7
0	6013	9222.626587143991	6
0	6015	9223.372569168542	7
0	6018	9228.593284598257	6
0	6020	9232.594829212428	5
0	6022	9245.602449472398	4
0	6024	9248.300547484306	5
0	6027	9254.77546658105	4
0	6029	9266.622156026378	5
0	6032	9266.691011633992	4
0	6034	9273.559079627756	3
0	6036	9276.639612086239	4
0	6039	9288.104070713162	5
0	6042	9288.296759710237	6
0	6045	9289.636755977306	7
0	6048	9289.838953624797	6
0	6050	9291.033610418416	7
0	6053	9294.498619986944	8
0	6055	9294.904808397529	7
0	6058	9295.79800826637	6
0	6060	9296.66619874826	5
0	6062	9301.357645495579	6
0	6065	9305.246557310013	7
0	6068	9308.356408424259	6
0	6070	9313.047531427118	5
0	6072	9316.711414125255	6
0	6075	9319.100955712097	5
0	6077	9319.153458425136	4
0	6079	9321.096642209524	5
0	6082	9321.655283978465	4
0	6084	9323.389073639126	5
0	6087	9326.530392078128	4
0	6089	9328.627442013114	3
0	6091	9330.511181044729	2
0	6093	9335.519873657004	3
0	6096	9340.002838013025	4
0	6099	9342.950813423644	3
0	6101	9345.542001668319	2
0	6103	9347.390401769867	3
0	6106	9348.007972998535	2
0	6108	9356.684358781181	3
0	6111	9359.51322542888	4
0	6114	9360.672707075675	5
0	6117	9370.402597697216	6
0	6120	9374.516496524022	5
0	6122	9375.185915337433	4
0	6124	9385.410954902553	3
0	6126	9389.659970226324	2
0	6128	9391.495848835787	1
0	6130	9398.481929642961	2
0	6133	9404.835851629565	3
0	6136	9405.006884623024	4
0	6139	9405.351550652328	5
0	6142	9410.533622771677	6
0	6145	9424.910534299166	5
0	6147	9431.057106025214	4
0	6149	9454.244450390134	3
0	6151	9454.71882298956	4
0	6154	9455.86280447299	5
0	6157	9457.670536014896	6
0	6160	9464.252451426031	5
0	6162	9474.646150308747	4
0	6164	9475.350251764048	5
0	6167	9477.892779735907	4
0	6169	9478.649493110299	5
0	6172	9480.293639645911	6
0	6175	9488.843054706263	5
0	6177	9491.046328408155	4
0	6179	9508.76559581098	3
0	6181	9516.692009411593	2
0	6183	9517.574337282978	3
0	6186	9517.713694002178	2
0	6188	9518.758826170048	3
0	6191	9519.885752040662	4
0	6194	9526.361210854499	3
0	6196	9535.71867647058	4
0	6199	9538.409767118392	3
0	6201	9544.79205266528	4
0	6204	9545.273271227198	5
0	6207	9547.426594574626	6
0	6210	9552.233174264044	5
0	6212	9552.436840651161	6
0	6215	9556.735657629629	5
0	6217	9567.858207265445	4
0	6219	9579.295837655234	5
0	6222	9582.775986221555	6
0	6225	9590.671778526975	5
0	6227	9590.877290661609	4
0	6229	9594.880220359836	3
0	6231	9599.276560629725	4
0	6234	9600.358591551213	3
0	6236	9602.967187777629	2
0	6238	9604.990925367204	3
0	6241	9607.108817954932	4
0	6244	9610.874849815969	3
0	6246	9616.809522747624	4
0	6249	9617.9487580538	5
0	6252	9619.400013939295	4
0	6254	9620.135958081963	3
0	6256	9622.251229192713	4
0	6259	9624.180757613262	5
0	6262	9631.816011485356	4
0	6264	9632.219763309514	3
0	6266	9632.852175297003	4
0	6269	9639.542132397477	5
0	6272	9643.551607808201	4
0	6274	9655.314291199257	3
0	6276	9657.039195459456	2
0	6278	9666.169882102313	1
0	6280	9676.186090146299	2
0	6283	9684.845699530944	3
0	6286	9685.93298486513	2
0	6288	9687.649142502418	3
0	6291	9687.845997277918	2
0	6293	9691.780982523583	1
0	6295	9692.445428707414	2
0	6298	9706.073715895711	1
0	6300	9721.345849935873	0
0	6302	9728.896491164197	1
0	6305	9730.409020976168	2
0	6308	9730.915765159878	3
0	6311	9739.531354115219	2
0	6313	9742.128962153482	3
0	6316	9743.113074380576	2
0	6318	9748.186167872077	3
0	6321	9751.265008154488	4
0	6324	9752.052322213676	5
0	6327	9756.035062750335	4
0	6329	9760.539504332712	3
0	6331	9773.279823128652	2
0	6333	9788.828060696141	1
0	6335	9805.021186569095	2
0	6338	9806.625846998081	3
0	6341	9812.9911128048	4
0	6344	9813.454358434228	5
0	6347	9823.303827718291	6
0	6350	9823.930697414795	7
0	6353	9825.282894123754	8
0	6355	9825.559260576788	7
0	6358	9828.98970334293	6
0	6360	9836.728143221031	5
0	6362	9838.508391879355	6
0	6365	9840.652430752799	5
0	6367	9841.168884842783	6
0	6370	9847.514054811509	5
0	6372	9850.602303556994	6
0	6375	9855.60851979457	7
0	6378	9865.322879336572	6
0	6380	9871.261974291648	5
0	6382	9874.512000604288	6
0	6385	9884.056263466994	5
0	6387	9885.257379714682	4
0	6389	9892.475297554155	3
0	6391	9896.250095717168	2
0	6393	9898.931930027645	1
0	6395	9899.155247134949	2
0	6398	9902.78030358749	1
0	6400	9912.885711368624	2
0	6403	9914.802427120468	3
0	6406	9915.004768546515	4
0	6409	9916.542681197614	3
0	6411	9921.854350141612	2
0	6413	9928.43118188073	3
0	6416	9933.274809446068	4
0	6419	9934.748614622305	5
0	6422	9934.958079763016	4
0	6424	9942.199732686053	5
0	6427	9945.545073170666	6
0	6430	9948.538160815999	7
0	6433	9964.466410782548	8
0	6435	9969.458770517984	7
0	6438	9970.67659376393	6
0	6440	9971.627577824225	5
0	6442	9974.045670906974	4
0	6444	9974.20692198626	3
0	6446	9975.747925318915	4
0	6449	9976.25490432378	5
0	6452	9997.347822740571	6
0	6455	10006.337928568248	7
0	6458	10009.052694382871	6
0	6460	10012.013906194105	5
0	6462	10024.558625082149	6
0	6465	10031.600675373613	5
0	6467	10034.007759731088	6
0	6470	10034.428180428444	5
0	6472	10035.693110692744	6
0	6475	10044.806369720154	5
0	6477	10045.920773223831	6
0	6480	10048.167469767737	7
0	6483	10048.508017462298	6
0	6485	10050.797218778347	7
0	6488	10050.952883530417	6
0	6490	10051.112308576653	5
0	6492	10053.720646235911	4
0	6494	10055.007620725846	3
0	6496	10060.198160751657	4
0	6499	10064.476690892383	5
0	6502	10067.101619922053	4
0	6504	10073.526327041285	5
0	6507	10074.619799213712	4
0	6509	10089.778372720695	3
0	6511	10092.322080454165	2
0	6513	10092.80648938211	3
0	6516	10095.675927730122	4
0	6519	10103.78999584598	3
0	6521	10104.835584454227	4
0	6524	10107.741618118781	5
0	6527	10109.271360163766	4
0	6529	10110.482863939077	5
0	6532	10116.489590594152	4
0	6534	10116.941471112605	5
0	6537	10123.291407134618	6
0	6540	10125.228677454857	5
0	6542	10130.422542256895	6
0	6545	10131.099959818213	5
0	6547	10132.59061469317	4
0	6549	10132.592868616094	3
0	6551	10132.917970026311	4
0	6554	10133.00949870696	5
0	6557	10136.274443050345	6
0	6560	10137.731888768668	7
0	6563	10141.688006751835	8
0	6565	10147.977278644472	7
0	6568	10149.921777916498	8
0	6570	10158.414100680096	9
0	6572	10159.207036161943	8
0	6575	10160.456597540043	9
0	6577	10163.068308032815	8
0	6580	10174.925357704875	7
0	6583	10180.19956454629	8
0	6585	10195.347962789564	7
0	6588	10197.370301661477	6
0	6590	10204.356315157519	7
0	6593	10206.669091300348	6
0	6595	10214.272529635296	5
0	6597	10217.841467881463	4
0	6599	10219.383954138756	5
0	6602	10221.755833717578	4
0	6604	10223.972063880803	5
0	6607	10224.534952866927	6
0	6610	10228.949268388167	5
0	6612	10230.750927619371	4
0	6614	10234.912795859882	3
0	6616	10235.822664946959	4
0	6619	10237.12481175659	3
0	6621	10241.754960324816	4
0	6624	10253.405121062432	5
0	6627	10256.309209668081	4
0	6629	10256.548556776605	5
0	6632	10259.914952386963	4
0	6634	10262.265458418706	3
0	6636	10263.746423051497	4
0	6639	10270.22077647228	5
0	6642	10270.672676656603	4
0	6644	10280.306333905875	5
0	6647	10281.443066961079	6
0	6650	10295.817660968589	5
0	6652	10296.664409258541	6
0	6655	10301.410307461992	7
0	6658	10312.144511700239	8
0	6660	10318.062869063119	9
0	6662	10319.67871723499	10
0	6664	10321.135964755027	11
0	6666	10324.011504891334	10
0	6669	10326.920046696945	9
0	6672	10332.478057863357	8
0	6675	10337.00605260288	7
0	6678	10341.519542206785	6
0	6680	10357.878879581581	5
0	6682	10359.287654633611	6
0	6685	10360.66929666945	5
0	6687	10370.943826451389	6
0	6690	10374.655791490841	5
0	6692	10377.973057428414	6
0	6695	10378.337293223677	5
0	6697	10379.768789124007	4
0	6699	10383.583490276501	5
0	6702	10384.501813101342	4
0	6704	10388.917744254118	3
0	6706	10389.067652525655	4
0	6709	10394.768140428513	5
0	6712	10409.672118728876	4
0	6714	10412.565515833035	3
0	6716	10415.041303743471	4
0	6719	10419.440373288324	5
0	6722	10420.592450656404	6
0	6725	10423.065828918682	5
0	6727	10426.914625498391	4
0	6729	10432.676938804355	5
0	6732	10434.218640927432	4
0	6734	10436.29713455219	5
0	6737	10442.932120545481	6
0	6740	10446.306846373702	7
0	6743	10447.98484720328	8
0	6745	10450.130433245497	7
0	6748	10454.164901931373	6
0	6750	10457.3180818646	7
0	6753	10458.589958130831	6
0	6755	10459.192990633342	5
0	6757	10464.20727132973	6
0	6760	10466.402446033039	7
0	6763	10466.703796644752	6
0	6765	10467.303023767407	5
0	6767	10468.025776185466	6
0	6770	10470.517713500255	5
0	6772	10470.655257457725	6
0	6775	10473.329567770818	7
0	6778	10483.522851433304	8
0	6780	10484.077493703505	9
0	6782	10491.719166711186	10
0	6784	10495.554202947101	11
0	6786	10495.696498258008	10
0	6789	10495.747603328223	9
0	6792	10496.165316508648	10
0	6794	10503.623324505617	9
0	6797	10504.159886027196	8
0	6800	10506.932794416582	9
0	6802	10507.888461661548	10
0	6804	10508.508947064448	9
0	6807	10510.245766382892	8
0	6810	10516.859915795407	7
0	6813	10520.042075638371	6
0	6815	10523.718063515941	5
0	6817	10534.599091996543	4
0	6819	10540.485330317011	5
0	6822	10545.13654940202	6
0	6825	10546.6420652303	5
0	6827	10547.056391326831	6
0	6830	10553.336596829163	7
0	6833	10562.538353717399	6
0	6835	10566.341483423508	7
0	6838	10575.969457089355	8
0	6840	10579.184771463972	7
0	6843	10580.440119969034	8
0	6845	10581.432984144506	9
0	6847	10584.91099829067	10
0	6849	10590.411587549094	11
0	6851	10590.760103939645	10
0	6854	10591.992342378647	11
0	6856	10594.542833113952	10
0	6859	10596.236822813887	11
0	6861	10600.478214247043	10
0	6864	10610.513880117918	9
0	6867	10613.913345380248	10
0	6869	10621.284122819518	9
0	6872	10623.445903494704	8
0	6875	10623.553191071396	7
0	6878	10625.564131535761	8
0	6880	10628.334702753055	9
0	6882	10634.38600020643	8
0	6885	10639.698705076851	9
0	6887	10641.802852843604	10
0	6889	10642.091090352298	11
0	6891	10642.242699709543	10
0	6894	10649.93991767595	11
0	6896	10650.028412254803	12
0	6898	10654.827930808989	11
0	6901	10658.036054429447	10
0	6904	10658.414798972319	9
0	6907	10658.920457289557	10
0	6909	10675.534048278346	9
0	6912	10677.016330450527	10
0	6914	10680.326114638402	9
0	6917	10683.327246743642	8
0	6920	10697.461177339096	9
0	6922	10699.401776246102	8
0	6925	10699.731266719714	7
0	6928	10718.232780864477	8
0	6930	10719.651112837942	7
0	6933	10720.095296415464	8
0	6935	10722.7490633955	9
0	6937	10725.803469892236	8
0	6940	10738.873653794241	7
0	6943	10741.21973306594	8
0	6945	10741.868970563403	9
0	6947	10742.085798129962	10
0	6949	10745.230919112862	9
0	6952	10748.196899217159	8
0	6955	10748.874432164953	9
0	6957	10749.870865386841	10
0	6959	10758.740122180196	11
0	6961	10761.812439947736	10
0	6964	10764.059014162161	11
0	6966	10764.106584586483	10
0	6969	10765.080917410195	9
0	6972	10766.164031783427	10
0	6974	10770.718468196658	9
0	6977	10774.02788845565	8
0	6980	10776.615287137548	9
0	6982	10779.096063775629	8
0	6985	10779.243318174074	7
0	6988	10779.889207713489	8
0	6990	10780.551448793963	9
0	6992	10783.570977279282	8
0	6995	10785.36742108379	9
0	6997	10790.748740174816	10
0	6999	10795.6023022594	9
0	7002	10798.296876007858	10
0	7004	10800.942119977976	9
0	7007	10804.260819596329	8
0	7010	10809.547856621729	7
0	7013	10810.822825504613	6
0	7015	10818.861940588681	5
0	7017	10825.29419518269	6
0	7020	10827.604455330357	7
0	7023	10828.953342370571	6
0	7025	10832.224783367493	7
0	7028	10837.438301175952	8
0	7030	10844.138558125988	7
0	7033	10846.681623805643	6
0	7035	10846.767945953078	5
0	7037	10848.141209203722	4
0	7039	10854.940780123974	3
0	7041	10862.634940584098	2
0	7043	10866.968502607331	1
0	7045	10869.676608077095	2
0	7048	10872.633989105744	1
0	7050	10874.806045433012	2
0	7053	10888.220039514867	3
0	7056	10908.344919441483	4
0	7059	10908.571596244732	5
0	7062	10912.466792061158	6
0	7065	10913.882226495455	5
0	7067	10914.632807268992	6
0	7070	10916.643759022616	5
0	7072	10918.713629870332	4
0	7074	10920.376143088592	5
0	7077	10924.125273382571	4
0	7079	10924.715616413777	3
0	7081	10925.887207770782	4
0	7084	10926.463755609389	3
0	7086	10933.402175335164	2
0	7088	10947.83390124172	3
0	7091	10949.70400168366	4
0	7094	10953.005958186318	3
0	7096	10965.439655036548	2
0	7098	10976.69399652254	3
0	7101	10984.446035348465	2
0	7103	10987.463555860268	1
0	7105	10990.40416771754	2
0	7108	11006.649117213747	3
0	7111	11009.660548888524	4
0	7114	11015.266808072748	3
0	7116	11020.097526081755	4
0	7119	11022.026755405147	5
0	7122	11043.158485307833	4
0	7124	11045.110486461014	5
0	7127	11046.91976736864	4
0	7129	11052.329454499021	5
0	7132	11053.594206128803	6
0	7135	11062.064012011596	5
0	7137	11068.40508252923	6
0	7140	11069.820400581555	7
0	7143	11070.2718108317	8
0	7145	11071.395649653433	9
0	7147	11084.022642825643	10
0	7149	11088.976272861237	9
0	7152	11093.961776188522	10
0	7154	11106.942631838127	9
0	7157	11107.799848403308	8
0	7160	11120.032600039006	7
0	7163	11124.94568807383	8
0	7165	11126.209430589491	7
0	7168	11130.553133594761	6
0	7170	11132.736971124788	5
0	7172	11134.317398920416	4
0	7174	11134.402193154316	5
0	7177	11135.653516253471	4
0	7179	11141.114818146412	5
0	7182	11154.061558413107	6
0	7185	11155.665752572281	5
0	7187	11156.100278913087	6
0	7190	11160.059136381606	7
0	7193	11160.747436251614	8
0	7195	11167.266991999741	7
0	7198	11170.290911814117	8
0	7200	11173.670982042125	7
0	7203	11174.075371289225	6
0	7205	11175.87399529572	5
0	7207	11182.757935381138	6
0	7210	11195.917685304215	7
0	7213	11202.0654629872	6
0	7215	11204.330944871406	5
0	7217	11205.433211445817	4
0	7219	11205.96977993658	5
0	7222	11208.931388800295	4
0	7224	11209.726373831197	5
0	7227	11212.718696182794	6
0	7230	11214.311811557525	7
0	7233	11219.448788133593	6
0	7235	11219.495669688553	5
0	7237	11222.251588607872	4
0	7239	11226.90335859888	3
0	7241	11227.691840904427	4
0	7244	11228.835485158074	3
0	7246	11238.524257015736	4
0	7249	11241.651359241099	5
0	7252	11242.401440758823	4
0	7254	11246.786172633778	3
0	7256	11247.150638858087	4
0	7259	11249.908804481916	3
0	7261	11251.868724495143	4
0	7264	11276.17271274856	5
0	7267	11278.619634343708	6
0	7270	11282.100351264776	5
0	7272	11290.26323188532	4
0	7274	11291.589781273119	3
0	7276	11301.382731180667	4
0	7279	11308.26197396255	5
0	7282	11309.494339841115	4
0	7284	11315.502463295438	5
0	7287	11318.153109865431	6
0	7290	11318.830176084832	5
0	7292	11321.632801618731	6
0	7295	11325.950944290516	7
0	7298	11326.225354842397	6
0	7300	11327.857942004081	5
0	7302	11332.233407343081	4
0	7304	11356.839472721397	5
0	7307	11365.188166994586	6
0	7310	11371.435769161188	5
0	7312	11378.849375179852	6
0	7315	11387.797693861148	5
0	7317	11391.102613264812	4
0	7319	11394.180301621628	5
0	7322	11397.573976818636	4
0	7324	11403.057452151246	3
0	7326	11410.066885421702	2
0	7328	11411.73366013634	3
0	7331	11420.62135007693	2
0	7333	11430.923048208815	3
0	7336	11436.603731593866	2
0	7338	11440.032764548003	3
0	7341	11452.280359081789	4
0	7344	11452.881147428774	3
0	7346	11465.687023333139	4
0	7349	11468.780983254802	5
0	7352	11470.693349542983	6
0	7355	11472.458896050188	5
0	7357	11474.998364251863	4
0	7359	11479.474429732483	3
0	7361	11482.482981779897	4
0	7364	11482.638336331183	5
0	7367	11484.398409510756	4
0	7369	11485.480435966984	5
0	7372	11491.263334592503	6
0	7375	11499.774448507698	5
0	7377	11499.930523263942	4
0	7379	11506.704920508038	5
0	7382	11509.0862128387	6
0	7385	11514.934478919615	7
0	7388	11515.841056033569	6
0	7390	11522.929637781985	7
0	7393	11523.248229990289	6
0	7395	11525.354392110989	7
0	7398	11526.92145724237	8
0	7400	11527.521459806399	7
0	7403	11530.451260121452	8
0	7405	11534.140337175913	9
0	7407	11535.531299920658	8
0	7410	11537.034345479108	9
0	7412	11537.362714721463	8
0	7415	11537.417503369686	7
0	7418	11538.117432921076	6
0	7420	11539.291144292218	7
0	7423	11540.792423984595	6
0	7425	11543.190293045857	5
0	7427	11549.240384633866	6
0	7430	11549.360047722315	5
0	7432	11563.454007017818	4
0	7434	11569.540936742043	3
0	7436	11570.184393198963	2
0	7438	11582.631347915979	3
0	7441	11584.098594993455	4
0	7444	11592.676493601925	3
0	7446	11600.240932786386	4
0	7449	11605.054018219531	5
0	7452	11606.639327808693	4
0	7454	11619.90463536691	5
0	7457	11629.053556317483	6
0	7460	11646.740168695808	5
0	7462	11651.322370320851	6
0	7465	11657.808119096926	7
0	7468	11662.453152441182	6
0	7470	11663.402803212257	7
0	7473	11666.328735422272	6
0	7475	11667.38053410895	5
0	7477	11668.168076772879	6
0	7480	11670.84027272703	5
0	7482	11672.535045148819	4
0	7484	11674.316084566852	5
0	7487	11684.406847076328	6
0	7490	11685.38445824081	5
0	7492	11690.229421276493	4
0	7494	11694.81986162364	3
0	7496	11695.844862544376	4
0	7499	11696.010399350061	5
0	7502	11696.794618514495	6
0	7505	11703.982133365331	7
0	7508	11704.301024807814	6
0	7510	11709.269875773788	5
0	7512	11716.947305859574	6
0	7515	11718.219374745302	5
0	7517	11721.800676816904	4
0	7519	11724.088009689679	5
0	7522	11724.504116127008	6
0	7525	11725.328097076186	5
0	7527	11725.410588866281	6
0	7530	11727.644500375309	5
0	7532	11727.787550201365	4
0	7534	11735.55539355142	5
0	7537	11739.507963160954	4
0	7539	11753.149146461599	3
0	7541	11754.51389834962	4
0	7544	11755.605299308793	3
0	7546	11760.99330102485	4
0	7549	11767.015108100375	5
0	7552	11769.002045632073	6
0	7555	11769.988479030387	7
0	7558	11770.560072434197	8
0	7560	11771.652980909327	7
0	7563	11776.719693075085	6
0	7565	11777.389343108967	5
0	7567	11781.263350147899	6
0	7570	11781.345954255542	7
0	7573	11786.977667810871	8
0	7575	11789.698259694827	9
0	7577	11791.086869786573	10
0	7579	11794.72248671055	9
0	7582	11796.711510559674	8
0	7585	11796.949288798109	7
0	7588	11801.779830145407	6
0	7590	11803.476317516557	5
0	7592	11803.513661142615	4
0	7594	11804.203277704765	3
0	7596	11810.701025230649	4
0	7599	11817.023962122535	5
0	7602	11823.756324677393	6
0	7605	11825.865389095947	5
0	7607	11828.925750488391	6
0	7610	11833.285436165487	7
0	7613	11840.88240530429	6
0	7615	11853.784612569263	5
0	7617	11858.130176387677	4
0	7619	11859.020760405761	3
0	7621	11859.415187717253	2
0	7623	11883.361789363026	3
0	7626	11886.550688981023	4
0	7629	11889.479372228581	5
0	7632	11889.61313634418	6
0	7635	11905.829406248272	5
0	7637	11908.836630941434	4
0	7639	11911.139046405013	3
0	7641	11917.811928889115	2
0	7643	11930.798540738299	3
0	7646	11931.432460798542	4
0	7649	11936.989179601429	3
0	7651	11951.41786829921	4
0	7654	11968.337085909488	5
0	7657	11968.907559363105	4
0	7659	11981.035807661616	3
0	7661	11995.023116917255	4
0	7664	11995.351898809058	3
0	7666	11996.058187603103	2
0	7668	11996.332963845207	1
0	7670	11998.18085799813	2
0	7673	12001.590365116321	3
0	7676	12003.281414620444	4
0	7679	12007.845252117512	3
0	7681	12013.786976402242	4
0	7684	12025.259676899904	5
0	7687	12031.177881267296	6
0	7690	12031.973797578594	7
0	7693	12037.240266386303	8
0	7695	12038.024209940217	9
0	7697	12046.930633207811	10
0	7699	12047.321057019934	9
0	7702	12047.660893422592	10
0	7704	12047.705076261401	11
0	7706	12047.892714553983	12
0	7708	12052.015613264298	11
0	7711	12058.562339409671	12
0	7713	12060.465551367496	11
0	7716	12066.22160593081	10
0	7719	12067.61931404531	11
0	7721	12070.669687534017	10
0	7724	12077.464971499455	11
0	7726	12083.770646981091	10
0	7729	12092.432927027002	11
0	7731	12102.95483449868	10
0	7734	12115.540728500324	9
0	7737	12123.308712320161	8
0	7740	12127.836017241193	9
0	7742	12130.289156559557	8
0	7745	12142.700462567765	9
0	7747	12143.859949640505	10
0	7749	12146.4888088043	11
0	7751	12152.642751625776	12
0	7753	12154.5256233227	11
0	7756	12158.013351704785	12
0	7758	12158.51167259798	11
0	7761	12159.347561612926	10
0	7764	12164.063616996406	9
0	7767	12170.573985347869	8
0	7770	12176.535010542517	9
0	7772	12183.813074894889	10
0	7774	12185.277543346391	9
0	7777	12190.231098130525	8
0	7780	12190.370203908185	7
0	7783	12196.462401839767	8
0	7785	12206.085693983223	7
0	7788	12206.984210121416	8
0	7790	12211.239692332595	7
0	7793	12212.209641075695	6
0	7795	12214.095085128498	7
0	7798	12214.169926628249	6
0	7800	12221.733236337742	7
0	7803	12226.380880780849	6
0	7805	12226.621991492069	5
0	7807	12228.064856715032	4
0	7809	12228.805623650123	3
0	7811	12229.553385975877	2
0	7813	12229.738716311177	1
0	7815	12229.875174557491	0
0	7817	12231.741513684316	1
0	7820	12240.780434588488	2
0	7823	12248.542089743709	3
0	7826	12259.384472668477	4
0	7829	12264.107620335077	3
0	7831	12274.604871887355	4
0	7834	12277.730991733937	5
0	7837	12278.388909403338	4
0	7839	12279.480609325494	3
0	7841	12284.77761777202	4
0	7844	12302.592899157414	3
0	7846	12323.415042200114	2
0	7848	12332.206269951725	3
0	7851	12332.713603101494	4
0	7854	12332.862552236634	3
0	7856	12347.993912397918	4
0	7859	12350.161688926192	5
0	7862	12353.301528580103	6
0	7865	12356.613272988813	7
0	7868	12360.686564787663	8
0	7870	12365.101078412592	7
0	7873	12370.663975737383	6
0	7875	12389.62001833985	5
0	7877	12390.674022766735	6
0	7880	12391.142801888624	7
0	7883	12392.814351046759	6
0	7885	12398.382852773007	7
0	7888	12403.634992662291	8
0	7890	12405.334679966498	9
0	7892	12409.939589595218	8
0	7895	12411.258133018153	7
0	7898	12412.904719560354	8
0	7900	12421.765061435386	9
0	7902	12423.398487444624	8
0	7905	12430.177081086178	9
0	7907	12432.79948075932	8
0	7910	12437.127416473631	7
0	7913	12437.737253688394	8
0	7915	12444.162109140947	9
0	7917	12449.031369454189	10
0	7919	12449.105440137117	9
0	7922	12453.666630671451	8
0	7925	12453.97231215422	7
0	7928	12458.672491250439	8
0	7930	12466.460069825299	9
0	7932	12467.349489803695	8
0	7935	12473.394863092649	7
0	7938	12477.96617266966	6
0	7940	12480.087063177572	5
0	7942	12484.199009860475	4
0	7944	12484.953965909713	5
0	7947	12486.836973363748	6
0	7950	12489.032464258643	5
0	7952	12495.780597100651	4
0	7954	12496.406217866477	3
0	7956	12499.885643136605	2
0	7958	12503.090488413032	1
0	7960	12503.590954135679	0
0	7962	12508.25986215505	1
0	7965	12514.152595448052	2
0	7968	12517.103195261261	3
0	7971	12530.495925011956	4
0	7974	12534.69302089932	5
0	7977	12539.631836440675	4
0	7979	12545.535806064269	5
0	7982	12550.232207891265	4
0	7984	12551.280600589418	3
0	7986	12551.443467055213	4
0	7989	12555.140611224173	5
0	7992	12558.691034470514	4
0	7994	12561.060241121881	5
0	7997	12568.698063939304	6
0	8000	12569.642844655894	5
0	8002	12577.629700664028	4
0	8004	12578.27548385181	3
0	8006	12589.229140263212	4
0	8009	12593.388601962472	3
0	8011	12594.306268472235	2
0	8013	12602.440505669944	3
0	8016	12603.924268636448	4
0	8019	12604.154727190147	3
0	8021	12606.867792325748	4
0	8024	12607.391449118212	5
0	8027	12611.240394328546	4
0	8029	12612.83537579123	3
0	8031	12614.264194271871	2
0	8033	12616.626859849216	3
0	8036	12632.13511296718	2
0	8038	12636.913163276686	3
0	8041	12642.695787158121	4
0	8044	12646.237212132601	5
0	8047	12651.013918338052	4
0	8049	12653.408115285005	3
0	8051	12661.680658003116	2
0	8053	12663.827776030026	3
0	8056	12672.19474463201	4
0	8059	12674.224621739073	3
0	8061	12679.537304231282	2
0	8063	12683.10278437693	3
0	8066	12693.522567058646	4
0	8069	12722.258194721957	3
0	8071	12722.547407959254	2
0	8073	12724.071915807227	3
0	8076	12727.221973915829	2
[...]
1	7475	11667.38053410895	0
1	7477	11668.168076772879	0
1	7480	11670.84027272703	0
1	7482	11672.535045148819	0
1	7484	11674.316084566852	0
1	7487	11684.406847076328	0
1	7490	11685.38445824081	0
1	7492	11690.229421276493	0
1	7494	11694.81986162364	0
1	7496	11695.844862544376	0
1	7499	11696.010399350061	0
1	7502	11696.794618514495	0
1	7505	11703.982133365331	0
1	7508	11704.301024807814	0
1	7510	11709.269875773788	0
1	7512	11716.947305859574	0
1	7515	11718.219374745302	0
1	7517	11721.800676816904	0
1	7519	11724.088009689679	0
1	7522	11724.504116127008	0
1	7525	11725.328097076186	0
1	7527	11725.410588866281	0
1	7530	11727.644500375309	0
1	7532	11727.787550201365	0
1	7534	11735.55539355142	0
1	7537	11739.507963160954	0
1	7539	11753.149146461599	0
1	7541	11754.51389834962	0
1	7544	11755.605299308793	0
1	7546	11760.99330102485	0
1	7549	11767.015108100375	0
1	7552	11769.002045632073	0
1	7555	11769.988479030387	0
1	7558	11770.560072434197	1
1	7560	11771.652980909327	0
1	7563	11776.719693075085	0
1	7565	11777.389343108967	0
1	7567	11781.263350147899	0
1	7570	11781.345954255542	0
1	7573	11786.977667810871	1
1	7575	11789.698259694827	2
1	7577	11791.086869786573	3
1	7579	11794.72248671055	2
1	7582	11796.711510559674	1
1	7585	11796.949288798109	0
1	7588	11801.779830145407	0
1	7590	11803.476317516557	0
1	7592	11803.513661142615	0
1	7594	11804.203277704765	0
1	7596	11810.701025230649	0
1	7599	11817.023962122535	0
1	7602	11823.756324677393	0
1	7605	11825.865389095947	0
1	7607	11828.925750488391	0
1	7610	11833.285436165487	0
1	7613	11840.88240530429	0
1	7615	11853.784612569263	0
1	7617	11858.130176387677	0
1	7619	11859.020760405761	0
1	7621	11859.415187717253	0
1	7623	11883.361789363026	0
1	7626	11886.550688981023	0
1	7629	11889.479372228581	0
1	7632	11889.61313634418	0
1	7635	11905.829406248272	0
1	7637	11908.836630941434	0
1	7639	11911.139046405013	0
1	7641	11917.811928889115	0
1	7643	11930.798540738299	0
1	7646	11931.432460798542	0
1	7649	11936.989179601429	0
1	7651	11951.41786829921	0
1	7654	11968.337085909488	0
1	7657	11968.907559363105	0
1	7659	11981.035807661616	0
1	7661	11995.023116917255	0
1	7664	11995.351898809058	0
1	7666	11996.058187603103	0
1	7668	11996.332963845207	0
1	7670	11998.18085799813	0
1	7673	12001.590365116321	0
1	7676	12003.281414620444	0
1	7679	12007.845252117512	0
1	7681	12013.786976402242	0
1	7684	12025.259676899904	0
1	7687	12031.177881267296	0
1	7690	12031.973797578594	0
1	7693	12037.240266386303	1
1	7695	12038.024209940217	2
1	7697	12046.930633207811	3
1	7699	12047.321057019934	2
1	7702	12047.660893422592	3
1	7704	12047.705076261401	4
1	7706	12047.892714553983	5
1	7708	12052.015613264298	4
1	7711	12058.562339409671	5
1	7713	12060.465551367496	4
1	7716	12066.22160593081	3
1	7719	12067.61931404531	4
1	7721	12070.669687534017	3
1	7724	12077.464971499455	4
1	7726	12083.770646981091	3
1	7729	12092.432927027002	4
1	7731	12102.95483449868	3
1	7734	12115.540728500324	2
1	7737	12123.308712320161	1
1	7740	12127.836017241193	2
1	7742	12130.289156559557	1
1	7745	12142.700462567765	2
1	7747	12143.859949640505	3
1	7749	12146.4888088043	4
1	7751	12152.642751625776	5
1	7753	12154.5256233227	4
1	7756	12158.013351704785	5
1	7758	12158.51167259798	4
1	7761	12159.347561612926	3
1	7764	12164.063616996406	2
1	7767	12170.573985347869	1
1	7770	12176.535010542517	2
1	7772	12183.813074894889	3
1	7774	12185.277543346391	2
1	7777	12190.231098130525	1
1	7780	12190.370203908185	0
1	7783	12196.462401839767	1
1	7785	12206.085693983223	0
1	7788	12206.984210121416	1
1	7790	12211.239692332595	0
1	7793	12212.209641075695	0
1	7795	12214.095085128498	0
1	7798	12214.169926628249	0
1	7800	12221.733236337742	0
1	7803	12226.380880780849	0
1	7805	12226.621991492069	0
1	7807	12228.064856715032	0
1	7809	12228.805623650123	0
1	7811	12229.553385975877	0
1	7813	12229.738716311177	0
1	7815	12229.875174557491	0
1	7817	12231.741513684316	0
1	7820	12240.780434588488	0
1	7823	12248.542089743709	0
1	7826	12259.384472668477	0
1	7829	12264.107620335077	0
1	7831	12274.604871887355	0
1	7834	12277.730991733937	0
1	7837	12278.388909403338	0
1	7839	12279.480609325494	0
1	7841	12284.77761777202	0
1	7844	12302.592899157414	0
1	7846	12323.415042200114	0
1	7848	12332.206269951725	0
1	7851	12332.713603101494	0
1	7854	12332.862552236634	0
1	7856	12347.993912397918	0
1	7859	12350.161688926192	0
1	7862	12353.301528580103	0
1	7865	12356.613272988813	0
1	7868	12360.686564787663	1
1	7870	12365.101078412592	0
1	7873	12370.663975737383	0
1	7875	12389.62001833985	0
1	7877	12390.674022766735	0
1	7880	12391.142801888624	0
1	7883	12392.814351046759	0
1	7885	12398.382852773007	0
1	7888	12403.634992662291	1
1	7890	12405.334679966498	2
1	7892	12409.939589595218	1
1	7895	12411.258133018153	0
1	7898	12412.904719560354	1
1	7900	12421.765061435386	2
1	7902	12423.398487444624	1
1	7905	12430.177081086178	2
1	7907	12432.79948075932	1
1	7910	12437.127416473631	0
1	7913	12437.737253688394	1
1	7915	12444.162109140947	2
1	7917	12449.031369454189	3
1	7919	12449.105440137117	2
1	7922	12453.666630671451	1
1	7925	12453.97231215422	0
1	7928	12458.672491250439	1
1	7930	12466.460069825299	2
1	7932	12467.349489803695	1
1	7935	12473.394863092649	0
1	7938	12477.96617266966	0
1	7940	12480.087063177572	0
1	7942	12484.199009860475	0
1	7944	12484.953965909713	0
1	7947	12486.836973363748	0
1	7950	12489.032464258643	0
1	7952	12495.780597100651	0
1	7954	12496.406217866477	0
1	7956	12499.885643136605	0
1	7958	12503.090488413032	0
1	7960	12503.590954135679	0
1	7962	12508.25986215505	0
1	7965	12514.152595448052	0
1	7968	12517.103195261261	0
1	7971	12530.495925011956	0
1	7974	12534.69302089932	0
1	7977	12539.631836440675	0
1	7979	12545.535806064269	0
1	7982	12550.232207891265	0
1	7984	12551.280600589418	0
1	7986	12551.443467055213	0
1	7989	12555.140611224173	0
1	7992	12558.691034470514	0
1	7994	12561.060241121881	0
1	7997	12568.698063939304	0
1	8000	12569.642844655894	0
1	8002	12577.629700664028	0
1	8004	12578.27548385181	0
1	8006	12589.229140263212	0
1	8009	12593.388601962472	0
1	8011	12594.306268472235	0
1	8013	12602.440505669944	0
1	8016	12603.924268636448	0
1	8019	12604.154727190147	0
1	8021	12606.867792325748	0
1	8024	12607.391449118212	0
1	8027	12611.240394328546	0
1	8029	12612.83537579123	0
1	8031	12614.264194271871	0
1	8033	12616.626859849216	0
1	8036	12632.13511296718	0
1	8038	12636.913163276686	0
1	8041	12642.695787158121	0
1	8044	12646.237212132601	0
1	8047	12651.013918338052	0
1	8049	12653.408115285005	0
1	8051	12661.680658003116	0
1	8053	12663.827776030026	0
1	8056	12672.19474463201	0
1	8059	12674.224621739073	0
1	8061	12679.537304231282	0
1	8063	12683.10278437693	0
1	8066	12693.522567058646	0
1	8069	12722.258194721957	0
1	8071	12722.547407959254	0
1	8073	12724.071915807227	0
1	8076	12727.221973915829	0
1	8078	12736.638011141117	0
1	8081	12739.872911970972	0
1	8084	12743.195304455693	0
1	8087	12744.032879850887	0
1	8089	12746.788013510765	0
1	8091	12747.947764400205	0
1	8094	12751.985890559867	0
1	8096	12756.712566515213	0
1	8099	12759.315154538674	0
1	8101	12759.825710228623	0
1	8103	12760.930433933821	0
1	8105	12761.504249183534	0
1	8108	12764.761267258316	0
1	8110	12764.848142398554	0
1	8113	12765.259215622575	0
1	8116	12767.132784855519	0
1	8119	12769.638478835241	0
1	8122	12771.193870577089	0
1	8124	12777.884131649601	0
1	8126	12779.377882172015	0
1	8129	12785.34343217528	0
1	8132	12794.65628450386	0
1	8135	12794.87184044451	0
1	8137	12800.064890381798	0
1	8139	12804.64378552466	0
1	8141	12819.131369868626	0
1	8143	12822.71864947517	0
1	8146	12828.615524602227	0
1	8148	12834.909123532374	0
1	8151	12838.461154732968	0
1	8154	12841.183630316921	0
1	8157	12845.670035808939	0
1	8160	12851.970677160414	0
1	8163	12858.115341864509	1
1	8165	12858.38751221971	0
1	8168	12859.166989103276	1
1	8170	12863.174452842347	0
1	8173	12866.269028684843	1
1	8175	12869.180326436018	0
1	8178	12875.549097566819	0
1	8180	12876.942379243227	0
1	8183	12885.644450423845	0
1	8185	12887.256217817406	0
1	8187	12888.387105225011	0
1	8189	12891.074300846745	0
1	8192	12918.964622495705	0
1	8194	12920.412838903288	0
1	8196	12935.985996968118	0
1	8199	12936.176376071147	0
1	8202	12938.630480023055	0
1	8205	12941.24082735525	0
1	8207	12945.966399206581	0
1	8209	12946.550916816051	0
1	8212	12953.77506587903	0
1	8215	12963.811177296933	0
1	8218	12967.201094148764	0
1	8220	12970.211613520362	0
1	8223	12971.457499261401	0
1	8225	12973.67248700046	0
1	8227	12979.514507875228	0
1	8229	12986.922771915305	0
1	8232	12988.630678522392	0
1	8235	12993.186284764591	0
1	8237	12994.893291761641	0
1	8240	13006.627452502804	0
1	8243	13017.278874894674	1
1	8245	13019.466272237861	0
1	8248	13026.919680383562	0
1	8250	13033.066069264259	0
1	8252	13044.384931331763	0
1	8254	13046.399813126469	0
1	8257	13046.436842937316	0
1	8259	13047.193483919531	0
1	8262	13048.300181794038	0
1	8265	13055.175023984733	0
1	8268	13055.993357990158	0
1	8270	13059.442706157887	0
1	8272	13061.539459085371	0
1	8275	13063.417418945151	0
1	8277	13066.684089705403	0
1	8279	13068.998972595881	0
1	8281	13071.358078329059	0
1	8283	13072.256623399061	0
1	8286	13083.862100801972	0
1	8289	13085.50412666577	0
1	8291	13092.55233383663	0
1	8293	13094.254025934445	0
1	8296	13108.001186784321	0
1	8299	13108.968277256824	0
1	8301	13109.393984209753	0
1	8304	13115.641904782915	0
1	8307	13117.423076789814	0
1	8309	13117.665094671469	0
1	8311	13118.118475566343	0
1	8313	13120.070195206183	0
1	8316	13141.254657590507	0
1	8319	13145.154673458152	0
1	8321	13145.456917698413	0
1	8324	13149.123334536712	0
1	8327	13156.797320477161	0
1	8329	13159.045363411574	0
1	8332	13165.200045803723	0
1	8334	13169.441770725036	0
1	8337	13174.011115535301	0
1	8339	13178.672716007694	0
1	8341	13180.884398397612	0
1	8344	13183.312586042199	0
1	8346	13184.311247897887	0
1	8348	13187.647130816646	0
1	8351	13188.349157210562	0
1	8353	13196.279142014972	0
1	8356	13203.500424083701	0
1	8359	13205.553948657863	0
1	8362	13212.302308717299	0
1	8364	13212.340756745868	0
1	8366	13213.451835793833	0
1	8369	13213.916336784631	0
1	8372	13216.912976625832	0
1	8375	13219.637289045303	0
1	8378	13221.467205292219	1
1	8380	13233.306591032229	0
1	8383	13242.930979735481	1
1	8385	13243.876340697879	0
1	8388	13244.451750819598	0
1	8390	13247.291234864869	0
1	8392	13247.569524799628	0
1	8395	13259.111297153721	0
1	8398	13262.906250330323	1
1	8400	13263.566022735663	0
1	8403	13265.207828501373	0
1	8405	13265.546550640741	0
1	8408	13269.147243526693	1
1	8410	13269.528753595011	0
1	8413	13273.794677023765	1
1	8415	13280.332243597961	2
1	8417	13281.812052651993	3
1	8419	13287.26561666805	4
1	8421	13291.175896392171	5
1	8423	13292.435530265597	4
1	8426	13297.664823448272	5
1	8428	13298.685531333652	4
1	8431	13308.90682326348	3
1	8434	13309.183946017795	4
1	8436	13311.118860389659	5
1	8438	13316.133165893758	6
1	8440	13316.81220205444	5
1	8443	13319.117542375568	4
1	8446	13319.464059590851	5
1	8448	13320.829302695486	4
1	8451	13322.129861394842	5
1	8453	13322.81430887865	4
1	8456	13325.472339364204	3
1	8459	13331.677047684587	4
1	8461	13338.331049215581	5
1	8463	13340.613753013904	6
1	8465	13341.355624780678	7
1	8467	13347.149106760709	8
1	8469	13352.327304351239	7
1	8472	13355.585190318232	8
1	8474	13357.796062001198	7
1	8477	13362.745511246621	6
1	8480	13364.454265938827	5
1	8483	13366.895785545326	6
1	8485	13367.44794931899	5
1	8488	13368.520403950679	4
1	8491	13370.357493542746	3
1	8494	13371.290465265054	4
1	8496	13372.810987561213	5
1	8498	13372.974603790924	4
1	8501	13375.680866186227	3
1	8504	13377.615947908483	4
1	8506	13382.803441194735	3
1	8509	13383.31035481521	4
1	8511	13385.966256844204	3
1	8514	13386.687632991614	4
1	8516	13386.789001856212	5
1	8518	13387.668934482164	4
1	8521	13389.94605156594	5
1	8523	13392.900820604828	6
1	8525	13402.080988387511	7
1	8527	13402.306921327001	8
1	8529	13405.659945767587	9
1	8531	13407.097358451557	10
1	8533	13409.190807280718	9
1	8536	13414.80518501838	10
1	8538	13421.531330732632	9
1	8541	13421.99922130041	8
1	8544	13430.267986198316	9
1	8546	13430.789008008497	8
1	8549	13431.4743544305	7
1	8552	13436.2998809283	8
1	8554	13441.509711729701	9
1	8556	13441.601276045885	10
1	8558	13442.530579150516	9
1	8561	13446.818387857195	10
1	8563	13447.248496112515	9
1	8566	13455.996196013879	10
1	8568	13457.110943204477	9
1	8571	13457.159812673452	8
1	8574	13457.599543605578	7
1	8577	13458.680474793042	6
1	8580	13461.083883495103	7
1	8582	13470.655558943142	8
1	8584	13473.636477848521	9
1	8586	13474.330146137248	10
1	8588	13474.53810704904	11
1	8590	13474.766368674455	12
1	8592	13477.712961100531	13
1	8594	13485.453578507283	14
1	8596	13490.094621029589	13
1	8599	13492.926503915064	14
1	8601	13497.292786786234	13
1	8604	13501.443475121466	12
1	8607	13505.9242625962	13
1	8609	13506.190486333338	12
1	8612	13511.232968441649	13
1	8614	13515.609016818489	12
1	8617	13522.316732982423	13
1	8619	13533.886990879995	14
1	8621	13536.154642831616	13
1	8624	13543.855081140831	12
1	8627	13545.095071120083	11
1	8630	13545.234001008752	10
1	8633	13546.756780955717	9
1	8636	13552.116387775305	8
1	8639	13552.185032845412	7
1	8642	13553.028570336587	6
1	8645	13553.059705342033	5
1	8648	13555.620532848851	6
1	8650	13556.097469016343	7
1	8652	13556.779225270433	6
1	8655	13557.748215505226	7
1	8657	13558.184218261294	6
1	8660	13567.958113254557	5
1	8663	13570.211844596907	6
1	8665	13570.247050533651	7
1	8667	13573.287107034052	6
1	8670	13577.64577906211	7
1	8672	13578.870783023519	8
1	8674	13579.879778763266	9
1	8676	13583.733480159764	8
1	8679	13584.033138461329	9
1	8681	13587.506210306639	8
1	8684	13587.601911167975	7
1	8687	13589.129531646408	6
1	8690	13589.355300162074	7
1	8692	13599.812215725563	8
1	8694	13600.665862983306	7
1	8697	13609.512707494563	8
1	8699	13612.193512003507	9
1	8701	13612.342454653831	10
1	8703	13613.754458181968	9
1	8706	13616.012823380119	10
1	8708	13616.646032895794	9
1	8711	13618.112766605506	10
1	8713	13621.529320746625	11
1	8715	13623.414464975481	12
1	8717	13635.133212441108	11
1	8720	13640.394974847688	12
1	8722	13644.182250790411	13
1	8724	13645.016439772373	14
1	8726	13649.255945036305	13
1	8729	13653.844790486367	14
1	8731	13654.46638704223	13
1	8734	13654.500235902822	12
1	8737	13660.595785196119	11
1	8740	13663.372656535762	10
1	8743	13664.315263178539	11
1	8745	13665.855931453454	10
1	8748	13666.090680592274	11
1	8750	13667.37242679473	12
1	8752	13667.478898928153	11
1	8755	13672.410732197893	12
1	8757	13675.051094472709	11
1	8760	13687.183905611379	12
1	8762	13688.241831203172	11
1	8765	13689.225132296306	10
1	8768	13691.10329168383	11
1	8770	13713.135839517719	12
1	8772	13719.461844918944	11
1	8775	13719.468964756988	12
1	8777	13720.547072504758	11
1	8780	13723.244162399507	10
1	8783	13723.473321626392	9
1	8786	13726.236039233231	10
1	8788	13726.344909089091	11
1	8790	13729.334313078595	10
1	8793	13730.511375326647	9
1	8796	13733.330625346902	8
1	8799	13734.628583191196	9
1	8801	13737.801755647427	10
1	8803	13737.95427913987	11
1	8805	13744.205704976905	12
1	8807	13745.23820520928	13
1	8809	13749.785153624136	12
1	8812	13752.322557204598	11
1	8815	13753.728180691796	10
1	8818	13755.121937796365	11
1	8820	13755.626642865794	10
1	8823	13756.682480721663	11
1	8825	13757.105528545248	10
1	8828	13758.684137594338	11
1	8830	13758.795263479875	10
1	8833	13760.466122946105	9
1	8836	13783.563745606431	8
1	8839	13786.542171267301	9
1	8841	13788.572125537511	8
1	8844	13790.738361303932	7
1	8847	13791.694870397529	6
1	8850	13794.77601876592	7
1	8852	13802.942071612473	8
1	8854	13803.679739794611	9
1	8856	13805.124155667679	8
1	8859	13805.768417182421	7
1	8862	13809.615413306605	8
1	8864	13818.80173106268	7
1	8867	13819.014892557711	8
1	8869	13822.985964721853	7
1	8872	13823.263400831247	6
1	8875	13823.981599376151	7
1	8877	13826.553268366481	6
1	8880	13833.731962032308	5
1	8883	13839.68057482445	4
1	8886	13844.167893378125	3
1	8889	13847.819245928066	2
1	8892	13849.180143651262	3
1	8894	13854.551192182315	2
1	8897	13855.090408101998	1
1	8900	13858.938258552579	2
1	8902	13859.876003355672	1
1	8905	13866.084129765755	2
1	8907	13868.768546275433	1
1	8910	13875.598154567114	2
1	8912	13877.883279285599	1
1	8915	13882.624940666378	2
1	8917	13883.240652516811	1
1	8920	13890.01244248667	2
1	8922	13890.18757971227	3
1	8924	13893.791331246685	4
1	8926	13894.968873374831	3
1	8929	13898.60610686349	2
1	8932	13898.910928752446	1
1	8935	13902.109497512842	2
1	8937	13902.1754380359	3
1	8939	13920.844408030514	2
1	8942	13924.85711457483	3
1	8944	13926.134291613483	4
1	8946	13927.329224227903	3
1	8949	13928.746222241922	4
1	8951	13930.487041392158	3
1	8954	13930.759541506397	4
1	8956	13935.938437189642	5
1	8958	13944.673913766729	6
1	8960	13947.854724373161	7
1	8962	13947.928625055332	6
1	8965	13952.486235991409	7
1	8967	13960.035964631999	6
1	8970	13962.306739534691	7
1	8972	13962.49003807892	8
1	8974	13962.950905614502	7
1	8977	13965.403005470491	6
1	8980	13966.754031516819	7
1	8982	13969.563093564887	8
1	8984	13970.51037546965	7
1	8987	13985.325034083472	8
1	8989	13990.081373926718	9
1	8991	13993.522707757906	10
1	8993	14003.72397232309	11
1	8995	14006.062004996663	10
1	8998	14006.834462733134	11
1	9000	14015.804080243272	12
1	9002	14020.356760401742	11
1	9005	14023.944546141672	10
1	9008	14027.254837783304	9
1	9011	14030.769453521943	10
1	9013	14033.966180676694	9
1	9016	14035.412198205411	8
1	9019	14038.445786937708	7
1	9022	14041.912789378732	6
1	9025	14050.823169031218	5
1	9028	14057.599907169578	6
1	9030	14058.675071646441	5
1	9033	14060.480324941924	4
1	9036	14061.262907286583	3
1	9039	14064.406940805372	2
1	9042	14067.64228360701	1
1	9045	14081.466319572841	2
1	9047	14082.451149827329	1
1	9050	14085.687160551188	2
1	9052	14087.088510699855	1
1	9055	14094.793045428541	0
1	9058	14099.680177196091	0
1	9060	14102.422977181429	0
1	9062	14108.863316378199	0
1	9065	14109.077175807531	0
1	9067	14109.809729967403	0
1	9070	14113.6362911997	0
1	9072	14114.007021853983	0
1	9074	14115.011600054211	0
1	9077	14115.941825990695	0
1	9079	14116.860925984141	0
1	9082	14118.51681174709	0
1	9085	14119.216360621268	0
1	9087	14120.917558204849	0
1	9089	14125.526445445627	0
1	9091	14136.998285039125	0
1	9094	14138.152094926162	0
1	9097	14138.984841471176	0
1	9099	14143.525429672708	0
1	9101	14148.383582732964	0
1	9104	14154.396483908784	0
1	9107	14154.843653768018	0
1	9110	14157.189478483714	0
1	9113	14158.450918386102	1
1	9115	14158.631868939641	0
1	9118	14170.273253909913	1
1	9120	14172.250630324164	0
1	9123	14175.641408926824	0
1	9125	14178.46137342352	0
1	9128	14178.617835626504	1
1	9130	14180.461596363278	2
1	9132	14182.696026082861	3
1	9134	14183.008980107492	2
1	9137	14184.873956257138	1
1	9140	14186.683021137449	0
1	9143	14190.157744266179	0
1	9145	14190.962571603368	0
1	9148	14193.955402249305	0
1	9150	14196.232478928356	0
1	9153	14200.232597390815	1
1	9155	14203.381475433052	2
1	9157	14204.413390385638	1
1	9160	14213.649449006572	0
1	9163	14220.1594653649	0
1	9165	14223.495896448743	0
1	9168	14224.563372771692	0
1	9170	14227.061475216517	0
1	9172	14234.591069539974	0
1	9174	14239.648785140846	0
1	9176	14243.786405870164	0
1	9179	14256.230183047488	0
1	9182	14257.00922129649	0
1	9184	14261.786494429994	0
1	9186	14267.95600437129	0
1	9189	14270.437850226351	0
1	9191	14284.072131473471	0
1	9193	14286.696736392027	0
1	9196	14291.368439457318	0
1	9199	14291.746241711204	0
1	9201	14292.36188922637	0
1	9204	14295.888167181558	0
1	9206	14304.979368085582	0
1	9209	14306.997894627801	0
1	9211	14323.726307358383	0
1	9213	14325.015808001379	0
1	9216	14329.258136037881	0
1	9218	14344.163605817378	0
1	9221	14351.430159727936	0
1	9224	14352.785616963437	0
1	9226	14353.122538676713	0
1	9229	14355.669519665656	0
1	9231	14361.590138202515	0
1	9234	14363.085736912483	0
1	9236	14363.657319503082	0
1	9239	14368.147554067668	0
1	9242	14375.650665112632	0
1	9244	14380.231774043042	0
1	9247	14390.921772677019	0
1	9249	14391.009970771059	0
1	9251	14394.309262411969	0
1	9253	14396.753559443586	0
1	9256	14399.733997717337	0

