version 2
run POLICY_1-33-20191213-12:40:10-1220
attr configname POLICY_1
attr datetime 20191213-12:40:10
attr experiment POLICY_1
attr inifile omnetpp.ini
attr iterationvars ""
attr iterationvarsf ""
attr measurement ""
attr network Carrefour
attr processid 1220
attr repetition 33
attr replication #33
attr resultdir results
attr runnumber 33
attr seedset 33
param **.policy 1
param **.delta 0s
param **.tillsNumber 7
param **.capacity 0.3
param **.meanInterArrivalTime 8s
param **.meanItemsInACart 12
param **.interArrivalDistribution 0
param **.itemsInCartDistribution 0

vector 0 Carrefour.decider stats_numCustomers:vector ETV
attr "" ""
attr source numCustomers
vector 1 Carrefour.decider stats_numCustomersQueue:vector ETV
attr "" ""
attr source numCustomersQueue
0	925	1200.186561952111	5
0	927	1201.022922354662	6
0	930	1207.581313107588	5
0	932	1211.908636558485	6
0	935	1212.003835179669	5
0	937	1220.861819928392	4
0	939	1221.959622411443	3
0	941	1225.413262442336	4
0	944	1230.762943058768	3
0	946	1236.076726492317	4
0	949	1242.761410209059	5
0	952	1248.026853269378	6
0	955	1249.120129572507	5
0	957	1252.107228224388	6
0	960	1252.132367477741	5
0	962	1260.592717839064	4
0	964	1266.754749513959	5
0	967	1269.372583240076	4
0	969	1275.077900997817	3
0	971	1276.357276696105	4
0	974	1287.5170475454	5
0	977	1292.768659494373	4
0	979	1294.574672828319	5
0	982	1298.622823082823	4
0	984	1300.214832959976	5
0	987	1306.57203223268	6
0	990	1310.778644247569	5
0	992	1311.770180134718	6
0	995	1311.774288016286	7
0	998	1312.071465624923	6
0	1000	1312.314149656784	7
0	1003	1318.86276562484	8
0	1005	1319.990939049694	7
0	1008	1320.219003151854	8
0	1010	1326.678657920126	9
0	1012	1327.78740344449	10
0	1014	1329.51090826307	9
0	1017	1330.630030085365	10
0	1019	1331.005276465229	11
0	1021	1332.952600970926	12
0	1023	1333.479946689602	13
0	1025	1334.553827091569	14
0	1027	1336.0879766767	15
0	1029	1344.419473856877	16
0	1031	1353.048339665437	17
0	1033	1358.112655371605	18
0	1035	1360.135903443236	17
0	1038	1368.566651311329	18
0	1040	1369.644431477248	17
0	1043	1374.341914213263	16
0	1046	1379.975067094027	15
0	1049	1380.349981665746	14
0	1052	1381.360922654657	15
0	1054	1383.95932866001	14
0	1057	1389.214101621691	13
0	1060	1394.812011955617	12
0	1063	1394.875964093991	13
0	1065	1394.979951311934	14
0	1067	1397.627395308378	13
0	1070	1398.855045378267	12
0	1073	1400.917441348578	11
0	1076	1405.7230795765	10
0	1079	1408.214367693589	11
0	1081	1416.960656672937	10
0	1084	1423.125682834656	9
0	1087	1424.491485949289	10
0	1089	1427.99318125169	9
0	1092	1428.119886299337	8
0	1095	1429.166897133498	7
0	1098	1429.671058219228	6
0	1100	1431.223579588933	5
0	1102	1442.860948412477	4
0	1104	1443.590701963171	5
0	1107	1447.31051176817	6
0	1110	1469.981264311062	7
0	1113	1481.153429732147	8
0	1115	1482.915202529897	7
0	1118	1487.093544901434	6
0	1120	1487.624669026074	5
0	1122	1491.95130121238	6
0	1125	1497.331180669054	5
0	1127	1504.545748400665	4
0	1129	1508.116485355361	5
0	1132	1520.28495976459	6
0	1135	1522.484810872008	7
0	1138	1531.625827920626	8
0	1140	1532.084925506311	7
0	1143	1534.856085276002	6
0	1145	1537.092634687262	7
0	1148	1537.648559973723	6
0	1150	1537.966487501983	7
0	1153	1538.225384614724	6
0	1155	1539.876594949725	5
0	1157	1545.140349982088	4
0	1159	1545.460243422805	3
0	1161	1547.861779604951	2
0	1163	1548.786474451809	1
0	1165	1551.651227739789	2
0	1168	1563.077724063945	3
0	1171	1569.221950662912	2
0	1173	1571.080442654987	1
0	1175	1576.951405771723	2
0	1178	1588.671703516283	3
0	1181	1595.661201078662	4
0	1184	1596.157536621277	5
0	1187	1598.150323562484	6
0	1190	1603.868868713498	5
0	1192	1603.918885345169	4
0	1194	1604.050134002428	5
0	1197	1607.608218288521	4
0	1199	1609.055821743952	5
0	1202	1609.795562557584	4
0	1204	1609.894780535128	3
0	1206	1609.987093712486	4
0	1209	1612.487776348713	5
0	1212	1629.453694492015	6
0	1215	1638.146534040179	7
0	1218	1638.462799026546	6
0	1220	1644.322117264542	5
0	1222	1645.415034171611	4
0	1224	1648.106667853256	5
0	1227	1649.554153727558	4
0	1229	1650.07263239114	3
0	1231	1655.488777751078	4
0	1234	1672.34001911893	5
0	1237	1674.927562099731	6
0	1240	1676.892044827446	5
0	1242	1681.385513829559	4
0	1244	1686.449685322881	3
0	1246	1688.359240459326	2
0	1248	1691.334316871397	1
0	1250	1694.46062457849	2
0	1253	1696.821873059813	1
0	1255	1697.679379784974	2
0	1258	1699.306790137011	1
0	1260	1700.496557036252	2
0	1263	1708.342494903418	3
0	1266	1710.549211281857	4
0	1269	1714.824646690456	5
0	1272	1717.510876890237	4
0	1274	1720.233630755061	5
0	1277	1722.038333801033	6
0	1280	1725.826216877057	5
0	1282	1727.323495635727	6
0	1285	1734.570954747457	7
0	1288	1739.088507378602	6
0	1290	1743.334034098095	7
0	1293	1744.45719584357	6
0	1295	1749.327109547653	7
0	1298	1755.212994159605	6
0	1300	1756.532347087729	7
0	1303	1757.045036433564	6
0	1305	1762.60868137034	5
0	1307	1776.589796874572	6
0	1310	1777.991419232807	5
0	1312	1784.824867549064	4
0	1314	1797.46900500511	5
0	1317	1797.738413918085	6
0	1320	1802.433750066943	5
0	1322	1804.149480673602	6
0	1325	1807.833763391385	7
0	1328	1809.356359623453	6
0	1330	1809.613527072449	7
0	1333	1809.733806984457	6
0	1335	1814.71370115004	7
0	1338	1817.84479664906	6
0	1340	1818.16366449998	7
0	1343	1820.663432313064	8
0	1345	1821.628928988549	9
0	1347	1838.661989454242	10
0	1349	1840.496261119598	9
0	1352	1847.650139553405	8
0	1355	1848.764238639372	9
0	1357	1850.153634841291	8
0	1360	1854.932635065634	9
0	1362	1859.135596546579	8
0	1365	1861.201923561389	7
0	1368	1862.701799455472	6
0	1370	1862.872900201222	7
0	1373	1865.642379330115	8
0	1375	1865.812836672698	9
0	1377	1866.269742979597	10
0	1379	1869.894077155566	11
0	1381	1871.706196381366	10
0	1384	1875.568288798149	9
0	1387	1879.452870520328	8
0	1390	1882.008044047348	7
0	1393	1886.185166971792	6
0	1395	1886.703240529308	5
0	1397	1899.881426126294	4
0	1399	1901.673676949145	3
0	1401	1903.314996980232	2
0	1403	1905.856149016797	3
0	1406	1916.337690417563	2
0	1408	1933.270058937386	3
0	1411	1936.207972239892	2
0	1413	1942.148965826925	1
0	1415	1962.029573982282	2
0	1418	1969.499018973144	3
0	1421	1974.197077991274	4
0	1424	1976.078119483733	3
0	1426	1977.2390964142	2
0	1428	1984.071535335919	3
0	1431	2004.091942326042	4
0	1434	2006.946980417014	3
0	1436	2019.098562582175	4
0	1439	2019.410793407476	5
0	1442	2027.120813469737	4
0	1444	2027.759032705151	3
0	1446	2035.842866686483	4
0	1449	2039.692065478678	5
0	1452	2055.880288896056	6
0	1455	2058.33050437881	7
0	1458	2060.014375250715	8
0	1460	2072.303067697598	7
0	1463	2073.204131950267	8
0	1465	2073.441624779102	9
0	1467	2076.051521992986	8
0	1470	2082.745481386322	7
0	1473	2082.937242353941	6
0	1475	2084.914773697885	5
0	1477	2085.398843491661	6
0	1480	2087.293969682074	7
0	1483	2094.998398091602	6
0	1485	2098.170566166354	7
0	1488	2099.334009714775	6
0	1490	2106.149835378935	7
0	1493	2108.391556827429	6
0	1495	2113.986470736186	7
0	1498	2114.9307779462	6
0	1500	2120.182328585412	7
0	1503	2120.909378464751	6
0	1505	2122.333454213026	5
0	1507	2122.381730632103	6
0	1510	2124.436544480337	5
0	1512	2124.702561636513	6
0	1515	2131.478171003556	5
0	1517	2141.131538394424	6
0	1520	2147.900639477151	5
0	1522	2156.414753882238	4
0	1524	2164.394036825905	5
0	1527	2164.904681981675	6
0	1530	2168.44253400918	7
0	1533	2168.861065913898	8
0	1535	2170.25743410006	7
0	1538	2184.893571583818	8
0	1540	2186.209733727219	7
0	1543	2189.188228286252	8
0	1545	2193.695307304774	7
0	1548	2199.954062006197	6
0	1550	2200.146572791236	5
0	1552	2200.680228744759	6
0	1555	2210.596404396643	5
0	1557	2225.059139505089	6
0	1560	2225.146713060247	5
0	1562	2227.856622134979	6
0	1565	2228.755505518024	7
0	1568	2242.24997627669	6
0	1570	2247.028907146379	7
0	1573	2254.646046321732	6
0	1575	2255.569863474463	5
0	1577	2288.876235368741	4
0	1579	2295.068123722084	5
0	1582	2297.981938858319	4
0	1584	2298.62195800054	5
0	1587	2299.39635797836	4
0	1589	2299.532863455463	5
0	1592	2299.727181434154	6
0	1595	2301.667695741889	5
0	1597	2314.10542302193	4
0	1599	2317.285259312063	5
0	1602	2329.038456578741	6
0	1605	2329.537806124412	7
0	1608	2329.9621364627	8
0	1610	2337.834488000095	9
0	1612	2338.753812964127	8
0	1615	2347.84819981012	7
0	1618	2354.368040706068	8
0	1620	2356.929331888859	7
0	1623	2362.063336416721	6
0	1625	2362.137207945372	5
0	1627	2372.557817873838	6
0	1630	2374.411221953265	7
0	1633	2381.078979569578	8
0	1635	2384.59953155334	7
0	1638	2394.310563176351	6
0	1640	2400.418129694784	5
0	1642	2401.567509471728	4
0	1644	2404.182227065823	5
0	1647	2413.680780709569	6
0	1650	2416.208543760783	7
0	1653	2435.90693036772	6
0	1655	2437.363220156141	5
0	1657	2441.287520739261	6
0	1660	2441.644792265485	7
0	1663	2441.96557659442	6
0	1665	2444.39226143422	7
0	1668	2446.937683354768	8
0	1670	2448.155133206274	7
0	1673	2451.539891280924	6
0	1675	2456.467055955904	5
0	1677	2462.85575630552	4
0	1679	2464.389005273108	3
0	1681	2466.804662514335	4
0	1684	2470.658649388176	5
0	1687	2478.2680948585	6
0	1690	2479.504953524628	7
0	1693	2480.696477400865	8
0	1695	2483.311030156114	7
0	1698	2484.470305750277	6
0	1700	2496.467942516068	5
0	1702	2498.15222294245	4
0	1704	2504.683537646159	3
0	1706	2507.99496794759	2
0	1708	2520.816084394239	1
0	1710	2523.18057113882	2
0	1713	2523.695485165501	3
0	1716	2526.882199367959	2
0	1718	2529.905728569972	3
0	1721	2532.30871072739	2
0	1723	2539.035338735007	3
0	1726	2543.301267323839	2
0	1728	2551.726960149531	3
0	1731	2551.846414557361	4
0	1734	2566.52922807702	3
0	1736	2572.696713360334	2
0	1738	2578.652420678995	3
0	1741	2579.947972513317	2
0	1743	2583.590786267688	3
0	1746	2584.810162582661	2
0	1748	2593.87961546032	1
0	1750	2594.33020095105	2
0	1753	2594.567452196995	3
0	1756	2606.173356682838	4
0	1759	2607.975182997621	3
0	1761	2614.885157781367	4
0	1764	2615.797040225872	3
0	1766	2628.834232170036	4
0	1769	2633.992010474952	5
0	1772	2634.304681674348	4
0	1774	2638.863428568122	5
0	1777	2640.369026415415	4
0	1779	2642.057521499212	5
0	1782	2643.819024357231	4
0	1784	2657.886333845404	3
0	1786	2664.981448990864	4
0	1789	2671.744197013643	3
0	1791	2674.962788696928	2
0	1793	2675.585665557765	3
0	1796	2677.520413598234	2
0	1798	2680.121309074776	3
0	1801	2680.621986178056	4
0	1804	2685.85920710491	5
0	1807	2686.931881724553	6
0	1810	2687.734948957729	7
0	1813	2693.36722787441	6
0	1815	2694.259081236693	7
0	1818	2700.510434709603	6
0	1820	2704.604311278952	5
0	1822	2709.779034284444	6
0	1825	2718.79875617824	5
0	1827	2719.450002911245	6
0	1830	2720.18853223599	5
0	1832	2726.203649496321	4
0	1834	2726.480990626528	5
0	1837	2726.662074822619	6
0	1840	2731.529280351355	7
0	1843	2733.431615988277	6
0	1845	2735.544104303299	5
0	1847	2736.018286075887	6
0	1850	2740.11726082863	5
0	1852	2749.863279992827	6
0	1855	2750.511199711178	5
0	1857	2752.296872302325	6
0	1860	2755.649199560167	7
0	1863	2755.655933049964	6
0	1865	2757.975087054799	5
0	1867	2758.038929009474	4
0	1869	2759.481216033221	3
0	1871	2774.717831011767	4
0	1874	2781.065730785745	5
0	1877	2789.390636536528	6
0	1880	2794.088046847704	5
0	1882	2794.76610280681	6
0	1885	2797.249826737989	5
0	1887	2799.276643908277	4
0	1889	2801.457594431849	5
0	1892	2803.887416426334	4
0	1894	2805.381340158839	3
0	1896	2806.108978163772	2
0	1898	2807.522821250618	3
0	1901	2826.770798199338	4
0	1904	2835.530712219811	3
0	1906	2844.774398014481	4
0	1909	2863.429291202091	5
0	1912	2868.872074069883	6
0	1915	2870.519514082702	5
0	1917	2872.021935205774	4
0	1919	2872.087556881126	5
0	1922	2877.611933597391	4
0	1924	2879.869220573378	3
0	1926	2880.070742109756	4
0	1929	2882.876582973158	3
0	1931	2884.962717684792	4
0	1934	2889.187611977075	5
0	1937	2890.980327082861	4
0	1939	2893.754857960923	5
0	1942	2896.380905032655	4
0	1944	2908.260858586097	5
0	1947	2910.470597884632	6
0	1950	2923.685549111526	7
0	1953	2927.229712197872	8
0	1955	2928.912289290164	9
0	1957	2929.031015994621	8
0	1960	2932.681816626979	7
0	1963	2934.198446151777	6
0	1965	2941.02962458131	5
0	1967	2946.96392039209	6
0	1970	2950.032307064027	7
0	1973	2950.679300836027	6
0	1975	2953.46850716874	7
0	1978	2954.963969205501	8
0	1980	2958.064514095412	9
0	1982	2959.239604513555	8
0	1985	2960.307762125138	7
0	1988	2962.232066962169	8
0	1990	2963.287883887797	7
0	1993	2965.994964617568	6
0	1995	2967.547807434621	7
0	1998	2969.035695478368	8
0	2000	2971.716492424925	9
0	2002	2971.72709089151	10
0	2004	2974.20855796263	9
0	2007	2974.930178877599	10
0	2009	2975.461852238855	9
0	2012	2976.797842579125	8
0	2015	2979.730404673147	9
0	2017	2986.255422213433	8
0	2020	2987.518846657947	7
0	2023	2991.315872907834	6
0	2025	2995.076285590713	7
0	2028	2997.1775825776	8
0	2030	2998.201286824368	7
0	2033	3004.967642244954	6
0	2035	3007.731133317069	5
0	2037	3009.378466648136	6
0	2040	3012.774802016158	7
0	2043	3022.766082724988	6
0	2045	3023.193937913185	7
0	2048	3027.535980634982	8
0	2050	3032.126804296668	9
0	2052	3042.101034760366	8
0	2055	3044.549211455774	7
0	2058	3045.512360975025	8
0	2060	3047.04955903314	7
0	2063	3048.61410518072	6
0	2065	3050.926799038233	5
0	2067	3062.657357262931	6
0	2070	3069.131781061484	5
0	2072	3072.632589296313	6
0	2075	3080.061838016979	5
0	2077	3080.455937162822	4
0	2079	3083.710141574606	5
0	2082	3090.437830193183	4
0	2084	3092.724603059485	5
0	2087	3094.923583233096	4
0	2089	3096.991015917232	3
0	2091	3097.558552765922	4
0	2094	3101.424823428733	5
0	2097	3112.004786398871	6
0	2100	3113.579859810368	5
0	2102	3115.578233754856	6
0	2105	3117.88884480769	5
0	2107	3119.75789176732	4
0	2109	3121.061929809179	5
0	2112	3131.815770010732	4
0	2114	3142.512310634759	3
0	2116	3142.512646369318	4
0	2119	3151.25173290218	3
0	2121	3153.740885077901	2
0	2123	3158.071307041524	3
0	2126	3169.043020546912	4
0	2129	3169.599994627126	3
0	2131	3170.489317862275	4
0	2134	3177.278552943662	5
0	2137	3178.121782326633	4
0	2139	3178.736094774925	5
0	2142	3185.043135615075	6
0	2145	3197.359068126907	7
0	2148	3205.393086112931	6
0	2150	3207.17956078697	7
0	2153	3207.214401048649	6
0	2155	3208.38165475721	7
0	2158	3210.83729312808	6
0	2160	3224.87868137381	5
0	2162	3244.434238031511	4
0	2164	3252.072916708837	5
0	2167	3255.143330098069	4
0	2169	3255.966977757892	5
0	2172	3264.50974362177	6
0	2175	3269.604338233512	5
0	2177	3271.277202208819	6
0	2180	3271.917381380966	5
0	2182	3274.023637729984	6
0	2185	3276.689477987168	5
0	2187	3279.711952315515	6
0	2190	3279.753529634758	7
0	2193	3281.118588827466	6
0	2195	3283.069108556615	5
0	2197	3284.925718923427	4
0	2199	3289.347633832397	3
0	2201	3299.460945900272	4
0	2204	3300.770983014834	3
0	2206	3303.408896216295	4
0	2209	3304.082007116336	5
0	2212	3306.0796341913	4
0	2214	3312.635238360317	3
0	2216	3315.234334843418	4
0	2219	3316.698915239232	3
0	2221	3318.357915043748	2
0	2223	3326.288917620732	3
0	2226	3345.527160863898	4
0	2229	3347.928605824621	3
0	2231	3362.265822541412	4
0	2234	3367.958787211188	5
0	2237	3376.162132872659	4
0	2239	3406.325760130588	5
0	2242	3408.21398918623	6
0	2245	3410.121711321343	7
0	2248	3425.966237002119	8
0	2250	3429.991696779911	9
0	2252	3430.385770004534	8
0	2255	3431.412359855383	7
0	2258	3435.530706642082	6
0	2260	3445.258137451141	7
0	2263	3445.345141175551	6
0	2265	3450.273130834283	5
0	2267	3466.557151445441	6
0	2270	3483.483434415979	5
0	2272	3486.563791979268	6
0	2275	3490.650288684207	5
0	2277	3504.554114076438	4
0	2279	3509.108714418327	5
0	2282	3509.689318648105	4
0	2284	3517.397498025746	5
0	2287	3527.546227603518	6
0	2290	3527.852140051575	7
0	2293	3530.396358329651	6
0	2295	3531.653009756652	7
0	2298	3542.212257826683	6
0	2300	3550.153208299937	5
0	2302	3550.580008019599	6
0	2305	3551.864574883877	5
0	2307	3553.696332733599	6
0	2310	3567.655363890612	7
0	2313	3577.353341786742	6
0	2315	3578.663135579737	7
0	2318	3581.787682828437	8
0	2320	3581.889987094412	7
0	2323	3586.111570807101	8
0	2325	3592.042196516129	7
0	2328	3593.005874892478	8
0	2330	3595.575025153831	7
0	2333	3599.712709098571	8
0	2335	3602.390166235154	7
0	2338	3603.571766886098	6
0	2340	3605.056307013163	5
0	2342	3607.820061895755	6
0	2345	3608.62762245589	7
0	2348	3609.843558148326	8
0	2350	3610.92427953465	7
0	2353	3611.195098297681	6
0	2355	3611.443438381337	7
0	2358	3611.752466736207	8
0	2360	3613.655973095128	9
0	2362	3620.128398283776	10
0	2364	3620.383796172908	9
0	2367	3620.815384241588	10
0	2369	3622.733428086898	11
0	2371	3626.040226560065	10
0	2374	3627.476825991425	9
0	2377	3628.560138111229	10
0	2379	3632.259741671815	9
0	2382	3635.638648117149	8
0	2385	3639.843859644527	9
0	2387	3641.814348922952	8
0	2390	3643.793675338105	7
0	2393	3645.81261438589	8
0	2395	3648.007258752064	7
0	2398	3649.721361151349	6
0	2400	3653.436291928955	5
0	2402	3654.522980851452	4
0	2404	3656.240854866181	5
0	2407	3657.684224943343	4
0	2409	3659.868525266283	3
0	2411	3666.724249732011	4
0	2414	3672.748324456088	3
0	2416	3676.721596533293	4
0	2419	3677.020936456701	3
0	2421	3686.264473889034	4
0	2424	3696.249246828721	5
0	2427	3696.908942738352	4
0	2429	3697.979889263674	5
0	2432	3703.377500940688	4
0	2434	3704.00809157223	5
0	2437	3711.51954235634	4
0	2439	3712.874107789004	5
0	2442	3718.954022749418	6
0	2445	3725.369530283453	5
0	2447	3725.93209403519	6
0	2450	3729.440475712745	7
0	2453	3734.99241531037	6
0	2455	3754.752330321044	5
0	2457	3754.812980688957	6
0	2460	3759.225104227616	5
0	2462	3764.95146570013	6
0	2465	3766.869446293397	5
0	2467	3775.190271113105	6
0	2470	3790.470552426847	5
0	2472	3792.201024165025	4
0	2474	3797.410654665627	3
0	2476	3798.395580256682	2
0	2478	3799.820838280993	3
0	2481	3806.825494194905	4
0	2484	3810.49476438086	5
0	2487	3810.521321373699	4
0	2489	3815.872643687329	3
0	2491	3821.133584166446	4
0	2494	3828.47837728057	3
0	2496	3830.764114554475	2
0	2498	3844.755498054755	3
0	2501	3845.12605445528	2
0	2503	3856.489848858467	3
0	2506	3857.80249248169	4
0	2509	3860.929466637799	3
0	2511	3866.571109642337	2
0	2513	3872.845529707427	3
0	2516	3883.480394202664	4
0	2519	3884.109056081502	3
0	2521	3884.130784581558	4
0	2524	3896.679625543627	3
0	2526	3897.878973602061	4
0	2529	3899.715141235062	5
0	2532	3901.657536396509	6
0	2535	3902.408574905501	7
0	2538	3902.718008480298	6
0	2540	3907.025448359627	5
0	2542	3907.641089451369	4
0	2544	3907.883674641477	3
0	2546	3909.937233887817	2
0	2548	3915.518385531817	3
0	2551	3923.212340869621	4
0	2554	3923.868485782846	3
0	2556	3928.168129467388	4
0	2559	3928.471412897978	3
0	2561	3933.457744991941	2
0	2563	3938.579361194145	3
0	2566	3941.519412843618	4
0	2569	3942.575582173911	5
0	2572	3950.555944483732	4
0	2574	3955.112341478266	5
0	2577	3959.883459797415	4
0	2579	3960.246599751576	3
0	2581	3963.201293665293	4
0	2584	3966.618415503365	5
0	2587	3975.052406427067	4
0	2589	3978.1013654899	3
0	2591	3994.63455283065	4
0	2594	3994.653217936036	3
0	2596	4004.422036062341	4
0	2599	4016.376320763909	3
0	2601	4016.934698409173	4
0	2604	4017.730835636299	5
0	2607	4025.868809304282	6
0	2610	4027.120275775508	7
0	2613	4029.363613060839	6
0	2615	4032.750848012521	5
0	2617	4040.055410967257	6
0	2620	4042.097146706754	5
0	2622	4043.672451752077	6
0	2625	4044.616144347993	7
0	2628	4053.0114806869	6
0	2630	4060.401261215663	5
0	2632	4068.998056515756	4
0	2634	4075.938278334672	3
0	2636	4077.471520738259	4
0	2639	4081.585967591085	5
0	2642	4086.56121114728	4
0	2644	4088.518137453901	3
0	2646	4097.965132204949	4
0	2649	4100.836393440279	3
0	2651	4106.969225539409	2
0	2653	4112.093941267672	1
0	2655	4138.012267706992	2
0	2658	4146.563943871371	1
0	2660	4153.5250117894	2
0	2663	4158.587092516302	3
0	2666	4159.850180445123	4
0	2669	4162.057110985241	5
0	2672	4165.17086371614	4
0	2674	4168.431523295809	3
0	2676	4170.29644314339	2
0	2678	4171.635190641033	3
0	2681	4172.275340438612	4
0	2684	4172.930524375193	3
0	2686	4182.872898141878	4
0	2689	4184.220344330106	5
0	2692	4188.402906049377	6
0	2695	4193.391509775438	5
0	2697	4193.875698715043	6
0	2700	4196.232563901274	7
0	2703	4198.266452875356	6
0	2705	4198.547827331771	5
0	2707	4200.422352247768	4
0	2709	4202.246668527179	3
0	2711	4205.876530403221	4
0	2714	4205.986908544158	5
0	2717	4207.075170552488	6
0	2720	4213.080322597695	5
0	2722	4216.411911976319	4
0	2724	4223.173177004784	3
0	2726	4236.334754915095	2
0	2728	4237.477749231975	3
0	2731	4248.895409066487	2
0	2733	4251.036355166268	3
0	2736	4255.345353088888	2
0	2738	4255.502963570612	1
0	2740	4280.52624469795	2
0	2743	4288.744771357302	3
0	2746	4289.9994708495	2
0	2748	4292.045751485342	3
0	2751	4296.663714261711	4
0	2754	4313.282442484287	5
0	2757	4320.590678711747	6
0	2760	4325.276181425615	5
0	2762	4326.869999385251	6
0	2765	4329.697826557889	7
0	2768	4330.872751733808	8
0	2770	4335.963277777651	9
0	2772	4337.50937197739	10
0	2774	4349.352853688971	9
0	2777	4349.700382203737	8
0	2780	4350.15792666474	7
0	2783	4353.185469631176	6
0	2785	4359.890468162954	5
0	2787	4360.311454925406	4
0	2789	4371.716464038011	3
0	2791	4376.011026633564	4
0	2794	4378.342083578659	3
0	2796	4380.461718556348	4
0	2799	4382.798999602387	5
0	2802	4389.578534028892	6
0	2805	4391.481294198484	7
0	2808	4409.898677801289	8
0	2810	4410.737243305076	7
0	2813	4416.160355897651	8
0	2815	4418.648480974054	7
0	2818	4420.08262026115	8
0	2820	4427.313953750288	7
0	2823	4428.90473214859	6
0	2825	4437.682427556801	7
0	2828	4440.16714492278	6
0	2830	4441.297374596339	5
0	2832	4443.105990088176	6
0	2835	4448.29514440351	5
0	2837	4452.995127155868	4
0	2839	4457.322626298947	3
0	2841	4465.490656784582	4
0	2844	4466.787992255638	5
0	2847	4472.061793053387	6
0	2850	4474.385656086126	7
0	2853	4477.647776359553	8
0	2855	4481.161244228242	7
0	2858	4482.213905913474	6
0	2860	4495.967081834759	5
0	2862	4501.305293894646	6
0	2865	4503.188574713372	5
0	2867	4507.819548931016	4
0	2869	4508.587067070239	5
0	2872	4512.588499716385	4
0	2874	4519.820737636231	5
0	2877	4525.64963773171	6
0	2880	4533.685596670999	5
0	2882	4539.002210139766	6
0	2885	4551.33604351916	5
0	2887	4553.598986571561	6
0	2890	4555.749183033815	5
0	2892	4558.431422029085	4
0	2894	4561.005720159649	5
0	2897	4569.063703125425	6
0	2900	4571.820755462436	7
0	2903	4574.858583959916	6
0	2905	4581.152292374499	7
0	2908	4587.221432954149	6
0	2910	4587.408864906084	7
0	2913	4590.243082595954	6
0	2915	4590.995882188078	5
0	2917	4592.369270880897	4
0	2919	4614.390369496395	5
0	2922	4621.25853802673	4
0	2924	4623.933432908491	5
0	2927	4627.393601303438	4
0	2929	4643.162911977314	5
0	2932	4644.488819528764	4
0	2934	4650.046300637937	5
0	2937	4654.835706355081	4
0	2939	4660.003602999616	5
0	2942	4660.43228424726	6
0	2945	4662.950809902614	7
0	2948	4667.275225248307	6
0	2950	4673.466006309478	7
0	2953	4675.698916575068	6
0	2955	4683.460288065639	7
0	2958	4688.265599341179	6
0	2960	4689.549755826597	5
0	2962	4692.360155344924	4
0	2964	4694.458237517375	3
0	2966	4697.419526310152	4
0	2969	4697.559924745955	5
0	2972	4700.884277128444	4
0	2974	4702.623309628277	5
0	2977	4703.045334385332	6
0	2980	4703.640318142495	7
0	2983	4704.629951025337	6
0	2985	4704.934002876917	7
0	2988	4705.447449597522	6
0	2990	4708.855742967158	7
0	2993	4709.597732930516	6
0	2995	4710.000929326353	7
0	2998	4712.09064671314	6
0	3000	4712.533847747645	5
0	3002	4712.942057710388	6
0	3005	4718.796487189358	5
0	3007	4729.176290210197	4
0	3009	4737.090556089326	3
0	3011	4742.090144093038	4
0	3014	4742.881891509637	3
0	3016	4746.250684595994	4
0	3019	4747.493794467692	3
0	3021	4758.57221575206	4
0	3024	4762.516223715444	5
0	3027	4764.86816154198	6
0	3030	4770.292207049884	7
0	3033	4772.671840672825	6
0	3035	4772.964053389871	5
0	3037	4775.732416848006	6
0	3040	4775.87492532381	7
0	3043	4776.26652060677	6
0	3045	4780.029604299531	7
0	3048	4780.132930244312	8
0	3050	4780.973176070411	7
0	3053	4781.173813968249	8
0	3055	4782.6863976616	9
0	3057	4783.595387674873	8
0	3060	4785.126154277829	7
0	3063	4791.684888321264	6
0	3065	4793.023666861064	7
0	3068	4793.816405691233	6
0	3070	4794.254218723899	5
0	3072	4814.37812779302	6
0	3075	4816.535890857631	7
0	3078	4816.832952855933	8
0	3080	4824.434719109502	9
0	3082	4824.893578182588	8
0	3085	4827.667180889968	9
0	3087	4837.09329354778	8
0	3090	4837.971522859852	9
0	3092	4838.937331483759	10
0	3094	4840.82767384433	11
0	3096	4841.560792577428	10
0	3099	4842.95495377408	9
0	3102	4849.695658977439	8
0	3105	4851.573103128158	9
0	3107	4852.907346313511	8
0	3110	4855.392647155507	9
0	3112	4868.653895153828	8
0	3115	4874.606532113037	7
0	3118	4874.849674020392	6
0	3120	4877.290689832457	7
0	3123	4877.620331787975	6
0	3125	4880.893295277008	5
0	3127	4882.797216193721	4
0	3129	4883.17608980173	3
0	3131	4885.093745180517	4
0	3134	4887.891465922146	5
0	3137	4894.464174995047	4
0	3139	4898.953994098912	3
0	3141	4911.670949688879	2
0	3143	4922.344367443929	3
0	3146	4929.864687075623	4
0	3149	4931.458159621475	3
0	3151	4934.685163847128	4
0	3154	4942.30218882587	5
0	3157	4944.741644748337	4
0	3159	4968.403364093425	5
0	3162	4969.109989897418	4
0	3164	4971.891902741957	3
0	3166	4972.885197438526	2
0	3168	4975.954281890417	3
0	3171	4976.058851447163	4
0	3174	4981.446354346561	5
0	3177	4982.843708245107	6
0	3180	4983.987522625267	7
0	3183	4987.404846613231	8
0	3185	4989.137889387044	7
0	3188	4989.606798576339	6
0	3190	4996.169980819035	7
0	3193	4997.493920803199	6
0	3195	4998.443716691659	5
0	3197	5005.133064200829	4
0	3199	5013.379308985072	5
0	3202	5017.860383215766	6
0	3205	5022.365942921829	5
0	3207	5022.57196181551	6
0	3210	5027.289598123753	7
0	3213	5036.473226508468	8
0	3215	5037.618492695139	7
0	3218	5051.881416731597	8
0	3220	5059.286553592122	7
0	3223	5059.614660352724	6
0	3225	5063.857033146255	5
0	3227	5064.367038243804	4
0	3229	5065.476526698591	5
0	3232	5093.119224323568	4
0	3234	5095.163037654597	3
0	3236	5096.594382004836	4
0	3239	5100.370704757771	5
0	3242	5100.86643966252	6
0	3245	5107.027889063888	7
0	3248	5112.291612114544	6
0	3250	5118.780906955361	5
0	3252	5119.555536644578	4
0	3254	5123.627819218737	5
0	3257	5125.287414264646	4
0	3259	5127.104821201215	5
0	3262	5136.253391198983	6
0	3265	5137.644554123053	7
0	3268	5140.077555743864	6
0	3270	5144.024078257198	5
0	3272	5146.949388420873	6
0	3275	5151.490742126444	7
0	3278	5152.555017042165	8
0	3280	5155.059054135458	7
0	3283	5159.691265172519	6
0	3285	5159.901935624948	5
0	3287	5160.404642247071	4
0	3289	5166.322162586369	5
0	3292	5172.875099523295	4
0	3294	5177.542520353217	5
0	3297	5178.63077914056	4
0	3299	5182.238383459222	5
0	3302	5186.70119965328	4
0	3304	5190.609307648585	5
0	3307	5190.753355533588	6
0	3310	5193.078497488523	5
0	3312	5193.929351259059	6
0	3315	5196.979341347129	5
0	3317	5201.223789911018	4
0	3319	5202.575078493936	3
0	3321	5209.548294819444	2
0	3323	5211.953771749872	3
0	3326	5214.945681047362	2
0	3328	5239.953715817983	3
0	3331	5240.694600778385	2
0	3333	5247.75264826305	3
0	3336	5252.812716726136	4
0	3339	5258.247020003169	3
0	3341	5262.318197779508	4
0	3344	5264.716453533297	3
0	3346	5288.683257790685	4
0	3349	5291.506487141787	3
0	3351	5292.641393618996	4
0	3354	5294.244414957204	5
0	3357	5295.09704754862	6
0	3360	5295.228601042334	5
0	3362	5299.891855868458	6
0	3365	5307.428361109478	7
0	3368	5314.781989017172	6
0	3370	5317.745204655382	5
0	3372	5331.872653552502	6
0	3375	5332.471320172715	7
0	3378	5336.454135522908	6
0	3380	5343.000175688271	5
0	3382	5343.452337278445	6
0	3385	5346.989920746139	7
0	3388	5347.051449929295	8
0	3390	5347.306550689604	7
0	3393	5348.935759756897	6
0	3395	5350.229933843167	5
0	3397	5351.816678126858	6
0	3400	5363.487937127656	5
0	3402	5365.389491330835	4
0	3404	5370.169755439663	3
0	3406	5370.172047020493	4
0	3409	5375.017761424412	3
0	3411	5376.921745962191	4
0	3414	5378.96910860093	3
0	3416	5382.79276516152	4
0	3419	5388.73018062345	3
0	3421	5406.156339110431	4
0	3424	5408.414952364384	3
0	3426	5408.481979781954	2
0	3428	5409.990847460209	3
0	3431	5412.354182753851	2
0	3433	5419.185340284216	1
0	3435	5420.089952889025	2
0	3438	5425.503408442981	1
0	3440	5436.40592603807	0
0	3442	5439.454172734507	1
0	3445	5440.084465238752	0
0	3447	5442.955693176851	1
0	3450	5458.034319726001	2
0	3453	5460.337830220409	1
0	3455	5466.817412787116	2
0	3458	5470.668267150112	3
0	3461	5473.144257792675	4
0	3464	5475.619784925473	3
0	3466	5478.224918188033	4
0	3469	5480.283223328458	5
0	3472	5480.798168500456	4
0	3474	5481.370088064222	5
0	3477	5481.399089942642	4
0	3479	5489.417994674646	5
0	3482	5491.062577386072	6
0	3485	5491.980207799554	7
0	3488	5492.976071577157	6
0	3490	5496.815277565873	5
0	3492	5500.842719369883	4
0	3494	5503.869267128337	5
0	3497	5508.364537393809	4
0	3499	5513.482722200019	5
0	3502	5517.94787819161	6
0	3505	5521.451896558927	5
0	3507	5536.491443227482	4
0	3509	5547.386419401914	5
0	3512	5555.732801153969	6
0	3515	5558.715939602827	5
0	3517	5560.592789989911	4
0	3519	5562.203428164573	3
0	3521	5573.368633151031	2
0	3523	5576.207475896261	3
0	3526	5576.487267229627	4
0	3529	5576.975733586255	3
0	3531	5580.709631500042	4
0	3534	5589.39407621768	5
0	3537	5596.779420243869	4
0	3539	5601.841920911472	5
0	3542	5603.425784283031	6
0	3545	5605.415491177376	5
0	3547	5619.503813204425	6
0	3550	5620.649751031102	5
0	3552	5625.996142177407	4
0	3554	5634.385226021351	5
0	3557	5647.305434189389	4
0	3559	5649.815218052672	5
0	3562	5652.049250890981	4
0	3564	5652.831136185639	3
0	3566	5652.994996736535	2
0	3568	5654.466090250633	3
0	3571	5655.809043841627	4
0	3574	5657.756872381442	5
0	3577	5665.120888315729	4
0	3579	5672.136182416562	5
0	3582	5679.49129750641	6
0	3585	5683.352285888834	7
0	3588	5684.11510642942	6
0	3590	5688.436354269469	5
0	3592	5691.921777393704	4
0	3594	5698.65845639856	3
0	3596	5704.724662833027	4
0	3599	5713.255761915385	5
0	3602	5715.539813194609	6
0	3605	5726.513561444598	5
0	3607	5728.725283885446	6
0	3610	5733.583862064709	5
0	3612	5738.635876047558	6
0	3615	5744.485266489991	5
0	3617	5745.686821628074	6
0	3620	5746.135471775917	7
0	3623	5751.597756248053	6
0	3625	5751.604569531762	7
0	3628	5758.701943923086	6
0	3630	5760.829944282996	7
0	3633	5765.197477466168	6
0	3635	5765.736024456128	5
0	3637	5767.159592983579	4
0	3639	5769.199004317046	3
0	3641	5771.824313972439	4
0	3644	5772.969169880216	5
0	3647	5773.052896517965	4
0	3649	5775.058093065872	5
0	3652	5786.070962329751	4
0	3654	5789.742923942809	3
0	3656	5799.929038643901	2
0	3658	5810.852357096846	3
0	3661	5811.571099492126	2
0	3663	5813.398656028214	3
0	3666	5817.153501662195	4
0	3669	5831.858678683571	5
0	3672	5833.798441929936	4
0	3674	5842.040276771138	3
0	3676	5844.846417378661	4
0	3679	5853.200956743278	5
0	3682	5856.048485162871	6
0	3685	5859.941280061535	7
0	3688	5862.767310745299	6
0	3690	5863.535363002019	5
0	3692	5868.184187538314	6
0	3695	5868.533968036933	7
0	3698	5870.713222429345	6
0	3700	5878.145137258813	7
0	3703	5878.579074955465	8
0	3705	5883.448692468019	9
0	3707	5884.490257275659	10
0	3709	5886.033990493213	9
0	3712	5889.4572066465	10
0	3714	5892.067717194738	9
0	3717	5893.595007888456	10
0	3719	5894.118013791292	9
0	3722	5900.618300006448	8
0	3725	5901.125792252596	9
0	3727	5901.370212553524	8
0	3730	5901.54989407788	9
0	3732	5904.114109441017	10
0	3734	5904.274586548131	11
0	3736	5913.61989924735	12
0	3738	5914.592016049103	13
0	3740	5918.662496845583	12
0	3743	5919.828558620497	13
0	3745	5922.369033350445	12
0	3748	5926.427777726017	13
0	3750	5926.93544797011	14
0	3752	5927.840972378549	13
0	3755	5932.921140055874	12
0	3758	5932.981635873413	11
0	3761	5933.591713879185	12
0	3763	5937.081319967194	11
0	3766	5939.297215627815	10
0	3769	5941.588312478149	9
0	3772	5941.643097256667	8
0	3775	5942.283444447138	9
0	3777	5943.630033911206	8
0	3780	5943.685752880079	9
0	3782	5949.313429207764	10
0	3784	5951.643907679481	9
0	3787	5953.124400316242	10
0	3789	5954.445607402286	11
0	3791	5954.668471656931	12
0	3793	5958.212596719527	11
0	3796	5959.098422346815	12
0	3798	5960.58006561622	11
0	3801	5964.429437093734	10
0	3804	5968.123220378004	9
0	3807	5968.796215021374	8
0	3810	5975.844717988026	7
0	3813	5977.990145935193	8
0	3815	5980.935789180335	7
0	3818	5982.03415052387	8
0	3820	5989.025631378617	9
0	3822	5996.903650896957	10
0	3824	5999.376792520291	9
0	3827	6002.510359882138	10
0	3829	6002.996307330531	9
0	3832	6005.074094359688	8
0	3835	6008.952032630849	7
0	3838	6009.342448882649	6
0	3840	6012.944676562037	5
0	3842	6017.169228859385	6
0	3845	6018.155892309588	7
0	3848	6019.626617641626	6
0	3850	6022.274941067949	5
0	3852	6025.428870959007	4
0	3854	6030.578033428704	3
0	3856	6031.538111132686	2
0	3858	6035.263816501284	3
0	3861	6037.09872438257	4
0	3864	6038.266945822703	5
0	3867	6041.969916405703	4
0	3869	6044.369555246203	3
0	3871	6048.173793114966	2
0	3873	6048.373514898655	3
0	3876	6057.380528831005	4
0	3879	6073.391993389976	5
0	3882	6073.457609948338	6
0	3885	6073.776559521779	7
0	3888	6073.861793940601	6
0	3890	6075.889642156626	7
0	3893	6090.561037628777	6
0	3895	6100.028638528185	7
0	3898	6106.683610498757	8
0	3900	6106.908269952464	7
0	3903	6107.685962834009	6
0	3905	6113.552746840194	7
0	3908	6117.330096289092	8
0	3910	6118.544487645354	7
0	3913	6119.823557620486	6
0	3915	6123.340769929285	7
0	3918	6123.844648483831	6
0	3920	6132.931124882602	5
0	3922	6135.080954652259	6
0	3925	6141.236586103434	5
0	3927	6142.621537402493	6
0	3930	6154.730366580068	5
0	3932	6162.913140587912	6
0	3935	6170.43755390322	7
0	3938	6170.733543236309	8
0	3940	6176.242207450682	7
0	3943	6180.859827266895	8
0	3945	6181.13508013515	7
0	3948	6189.893770347079	8
0	3950	6194.647787150683	7
0	3953	6195.123768223328	8
0	3955	6197.645692825198	9
0	3957	6200.396605983026	10
0	3959	6201.19644033323	11
0	3961	6201.985774477502	12
0	3963	6203.143873418169	11
0	3966	6203.508474470415	12
0	3968	6208.145267048067	11
0	3971	6211.587262023252	12
0	3973	6218.958064844842	13
0	3975	6225.651775827431	12
0	3978	6226.780175575955	13
0	3980	6228.75481110171	14
0	3982	6229.838853997437	13
0	3985	6232.848494143172	14
0	3987	6237.056747859656	15
0	3989	6237.771164576114	14
0	3992	6238.276348723382	13
0	3995	6239.344290921021	14
0	3997	6240.781377036974	15
0	3999	6247.124596138419	14
0	4002	6253.773044026505	13
0	4005	6256.63896699891	14
0	4007	6260.394746916148	13
0	4010	6269.411873231237	12
0	4013	6271.544563471562	11
0	4016	6271.718062663004	10
0	4019	6273.432665530913	11
0	4021	6273.983666856532	10
0	4024	6275.491226465117	11
0	4026	6280.450285333001	10
0	4029	6285.021874415254	9
0	4032	6286.368972947643	8
0	4035	6287.285792428677	9
0	4037	6290.032816823597	10
0	4039	6292.802947761101	11
0	4041	6293.582914307377	12
0	4043	6294.914614132457	13
0	4045	6308.603149680716	14
0	4047	6308.648201777513	13
0	4050	6315.293915612016	12
0	4053	6316.106774588436	11
0	4056	6323.927729240847	10
0	4059	6325.167099621244	9
0	4062	6326.166576927439	8
0	4065	6333.140919057118	7
0	4068	6335.083711522373	6
0	4070	6336.081214582967	7
0	4073	6339.786968281217	6
0	4075	6343.02596152664	5
0	4077	6347.001313952222	4
0	4079	6348.379559752579	5
0	4082	6353.011555442879	4
0	4084	6368.599649837148	5
0	4087	6370.886888392702	6
0	4090	6373.251459006884	7
0	4093	6387.877415196027	8
0	4095	6389.55381014846	9
0	4097	6394.825675135283	10
0	4099	6403.809906532822	11
0	4101	6407.499856688854	12
0	4103	6408.083569355399	13
0	4105	6411.042892315884	14
0	4107	6413.008144493483	13
0	4110	6417.632308964172	14
0	4112	6420.965992323414	13
0	4115	6424.596356844253	14
0	4117	6427.195134103361	13
0	4120	6427.399704883871	14
0	4122	6430.28859466695	15
0	4124	6431.656734030199	16
0	4126	6439.223948963852	15
0	4129	6465.594116797282	14
0	4132	6468.283928360406	15
0	4134	6469.768606102732	14
0	4137	6476.163759388238	13
0	4140	6479.230483330632	12
0	4143	6480.187177102732	13
0	4145	6481.026666650855	12
0	4148	6483.256400596641	13
0	4150	6486.106869265336	14
0	4152	6490.928658550096	15
0	4154	6491.889514502335	14
0	4157	6492.909821836369	13
0	4160	6493.091219510974	14
0	4162	6493.232191035062	13
0	4165	6493.349465274384	12
0	4168	6494.563832632	11
0	4171	6494.594413787562	10
0	4174	6497.869045163498	9
0	4177	6499.193354961758	8
0	4180	6503.965836600206	9
0	4182	6504.078397901152	10
0	4184	6508.855990166761	11
0	4186	6517.161276749296	12
0	4188	6521.772206854699	13
0	4190	6522.398409024332	12
0	4193	6526.699795555772	11
0	4196	6527.425310222978	10
0	4199	6534.20127301458	9
0	4202	6536.41902133158	8
0	4205	6540.861205378407	7
0	4208	6544.108158451868	8
0	4210	6544.986870807928	7
0	4213	6566.464172238223	8
0	4215	6569.056479636003	7
0	4218	6570.129850729996	6
0	4220	6570.836690742611	7
0	4223	6573.335723799203	6
0	4225	6576.03825347896	7
0	4228	6578.538059328232	6
0	4230	6585.341315187017	7
0	4233	6585.662217267972	6
0	4235	6588.326918029505	5
0	4237	6592.076361355732	4
0	4239	6600.449390670596	5
0	4242	6600.549572792834	4
0	4244	6607.736955973964	3
0	4246	6609.868166918739	4
0	4249	6611.397942993072	3
0	4251	6616.854502729738	4
0	4254	6620.503343849762	5
0	4257	6624.514381359926	6
0	4260	6629.41999196638	5
0	4262	6633.8856842011	4
0	4264	6640.089713825538	5
0	4267	6645.061028454454	4
0	4269	6650.700238251243	3
0	4271	6655.044669414291	4
0	4274	6662.492051504019	5
0	4277	6663.818219417524	6
0	4280	6668.107989392265	7
0	4283	6669.564525719064	6
0	4285	6675.043224618764	5
0	4287	6676.904600664925	4
0	4289	6684.588454016189	3
0	4291	6689.576702589857	4
0	4294	6690.439723834268	3
0	4296	6693.605857931892	4
0	4299	6694.930108434056	3
0	4301	6698.315471964974	4
0	4304	6702.67257877385	3
0	4306	6704.518946625643	2
0	4308	6724.261688840664	3
0	4311	6724.592813577627	2
0	4313	6724.718511407692	3
0	4316	6727.730132191364	4
0	4319	6730.09746945734	5
0	4322	6731.240358580718	4
0	4324	6732.41562911411	5
0	4327	6734.35602407447	4
0	4329	6738.067095197874	3
0	4331	6744.349805777587	4
0	4334	6747.147772777271	3
0	4336	6747.920063519367	4
0	4339	6752.888590262014	3
0	4341	6757.727251124231	4
0	4344	6758.874872555617	5
0	4347	6763.385375520515	4
0	4349	6765.894220286342	5
0	4352	6767.391809695353	4
0	4354	6767.87010095227	5
0	4357	6777.475969447238	4
0	4359	6784.253111997673	3
0	4361	6795.567515636356	4
0	4364	6797.151114018347	5
0	4367	6798.477186443415	6
0	4370	6800.032046651012	7
0	4373	6808.233701391525	6
0	4375	6809.759398306037	7
0	4378	6816.837458928559	8
0	4380	6821.489430534466	9
0	4382	6825.381151587843	10
0	4384	6826.414018333263	9
0	4387	6828.69316214746	10
0	4389	6830.137282957152	9
0	4392	6833.009665612009	8
0	4395	6833.383397452112	7
0	4398	6833.729679773449	8
0	4400	6838.787805603419	7
0	4403	6841.188784389257	6
0	4405	6844.133695901857	5
0	4407	6854.47207898812	6
0	4410	6859.976759335816	5
0	4412	6860.340841062981	6
0	4415	6861.791890381191	5
0	4417	6872.134794950354	6
0	4420	6879.374284228859	5
0	4422	6883.964266653225	4
0	4424	6884.591044386648	3
0	4426	6900.730449137002	2
0	4428	6905.004559947764	1
0	4430	6911.241942470032	2
0	4433	6911.296174835361	1
0	4435	6926.47916710589	2
0	4438	6939.088320334435	1
0	4440	6940.254867953044	2
0	4443	6948.530720990196	3
0	4446	6953.012753760556	4
0	4449	6959.528862641863	5
0	4452	6961.643102400439	4
0	4454	6965.205676956705	3
0	4456	6974.881672919956	4
0	4459	6977.55069700564	3
0	4461	6980.607562471308	2
0	4463	6984.139565156734	1
0	4465	6984.425786031068	2
0	4468	6996.679817750438	3
0	4471	7006.44498578659	4
0	4474	7007.688994989438	5
0	4477	7009.551298004449	4
0	4479	7011.290823110409	3
0	4481	7011.830340779335	4
0	4484	7013.364051937226	3
0	4486	7023.206079409936	2
0	4488	7031.209066588655	1
0	4490	7037.047938559168	0
0	4492	7046.288181535541	1
0	4495	7046.860615907101	0
0	4497	7052.819251208608	1
0	4500	7066.224831509616	2
0	4503	7066.780461484551	1
0	4505	7083.361427106094	2
0	4508	7085.926664495822	3
0	4511	7087.17021579217	2
0	4513	7090.261375636021	3
0	4516	7110.270272765712	2
0	4518	7113.921980463669	1
0	4520	7114.826431125501	2
0	4523	7117.005896104255	3
0	4526	7121.414910347996	2
0	4528	7128.429236084305	3
0	4531	7139.908207413356	4
0	4534	7144.235309492815	5
0	4537	7145.623997024076	6
0	4540	7147.205799757134	7
0	4543	7147.937081404643	8
0	4545	7148.454455261347	7
0	4548	7154.873745011231	8
0	4550	7163.68795910449	9
0	4552	7164.1492448216	8
0	4555	7168.265661762568	9
0	4557	7169.743296042404	10
0	4559	7170.248656749192	9
0	4562	7171.080839681135	8
0	4565	7173.353235127766	7
0	4568	7173.429061552676	6
0	4570	7176.381926746951	5
0	4572	7181.525141360021	4
0	4574	7183.189577477003	5
0	4577	7188.858865023869	4
0	4579	7192.872909588376	3
0	4581	7194.252043376603	4
0	4584	7194.613433520501	5
0	4587	7199.342559268812	4
0	4589	7202.604169785648	5
0	4592	7203.138028793357	4
0	4594	7207.450653635082	5
0	4597	7218.239176914229	6
0	4600	7218.831266423041	7
0	4603	7219.824219466862	8
0	4605	7223.392384662306	9
0	4607	7225.189872115978	10
0	4609	7225.588338986835	11
0	4611	7226.385596552963	12
0	4613	7226.966454915387	13
0	4615	7227.790980853406	14
0	4617	7229.321231069628	13
0	4620	7229.513184400267	14
0	4622	7232.582616512604	15
0	4624	7232.631535746303	14
0	4627	7235.761739705711	15
0	4629	7236.519940807143	16
0	4631	7237.187976208017	17
0	4633	7243.900242967594	18
0	4635	7244.289776445865	17
0	4638	7244.387359931222	18
0	4640	7249.172278194611	19
0	4642	7249.351123057272	20
0	4644	7252.833257935309	21
0	4646	7253.297329817024	20
0	4649	7255.648755593529	19
0	4652	7262.463358967967	20
0	4654	7263.130926362537	19
0	4657	7263.577192807032	18
0	4660	7265.476249279384	17
0	4663	7268.471015997912	18
0	4665	7268.511613525418	19
0	4667	7270.15900029742	18
0	4670	7270.171570044763	19
0	4672	7272.322575602673	20
0	4674	7276.568431271869	21
0	4676	7280.062518524488	20
0	4679	7280.446477280225	21
0	4681	7281.918436222419	22
0	4683	7285.697709230387	23
0	4685	7292.094968587893	24
0	4687	7295.804638535104	23
0	4690	7298.231539033633	22
0	4693	7298.700523774311	21
0	4696	7300.378946431179	22
0	4698	7308.108183669261	23
0	4700	7309.734915109669	22
0	4703	7310.396071230062	21
0	4706	7310.63659796162	22
0	4708	7311.792173271836	23
0	4710	7315.235859093962	22
0	4713	7317.394317753529	21
0	4716	7323.247986764542	20
0	4719	7327.291279014975	19
0	4722	7333.445449024483	20
0	4724	7338.332802495392	19
0	4727	7344.718615860043	18
0	4730	7349.513633944069	17
0	4733	7352.921257336297	18
0	4735	7354.977283325545	17
0	4738	7357.511509046378	18
0	4740	7357.958280404757	19
0	4742	7364.163440658961	18
0	4745	7367.269321986815	19
0	4747	7370.584189703788	18
0	4750	7371.071008900492	17
0	4753	7372.773651971364	16
0	4756	7378.226772500743	17
0	4758	7380.520608167202	18
0	4760	7381.45983431827	19
0	4762	7386.230766068112	20
0	4764	7394.726195902643	19
0	4767	7396.271404765195	20
0	4769	7399.839078656004	19
0	4772	7416.485155411277	18
0	4775	7428.576025813502	19
0	4777	7430.086542213632	18
0	4780	7431.557501254871	19
0	4782	7433.643331617685	20
0	4784	7435.94498864187	19
0	4787	7439.535488112916	18
0	4790	7442.492602675305	19
0	4792	7443.270560886359	18
0	4795	7443.674529737098	17
0	4798	7443.884895179984	16
0	4801	7446.697347591073	15
0	4804	7448.378896354185	16
0	4806	7450.767871616206	17
0	4808	7451.846094480886	16
0	4811	7453.853987633787	15
0	4814	7454.769120261566	14
0	4817	7460.35779951227	13
0	4820	7469.95053047421	12
0	4823	7475.673846148441	11
0	4826	7478.369309907227	12
0	4828	7479.411006239858	11
0	4831	7481.284104535622	10
0	4834	7481.439732420425	9
0	4837	7482.45652303872	10
0	4839	7483.00569532643	9
0	4842	7485.434955762971	8
0	4845	7487.234541589389	9
0	4847	7492.087872980386	8
0	4850	7493.286660990078	9
0	4852	7499.931376240395	8
0	4855	7500.889950158848	9
0	4857	7506.945406747933	8
0	4860	7512.17121955176	7
0	4863	7516.865248717647	6
0	4865	7518.771680185448	7
0	4868	7519.939401776225	6
0	4870	7520.878902319477	5
0	4872	7534.59089737308	6
0	4875	7537.257789648004	5
0	4877	7540.896585705027	6
0	4880	7541.262516839531	5
0	4882	7546.522225092753	4
0	4884	7562.504860962505	3
0	4886	7567.419308262557	2
0	4888	7567.720849425372	3
0	4891	7572.179125984503	4
0	4894	7572.337421492755	5
0	4897	7573.902123030655	6
0	4900	7575.296564526631	7
0	4903	7582.787821659122	6
0	4905	7582.992651808311	5
0	4907	7587.291248263938	4
0	4909	7587.594023663453	5
0	4912	7589.722004248122	6
0	4915	7593.433270346847	7
0	4918	7596.580307234906	6
0	4920	7603.011087845683	5
0	4922	7607.257622879096	4
0	4924	7607.788442853726	5
0	4927	7616.913290167758	4
0	4929	7618.781943723163	5
0	4932	7630.504235702995	4
0	4934	7639.749338200397	3
0	4936	7656.403241719526	2
0	4938	7657.170431869909	3
0	4941	7658.11442534751	4
0	4944	7660.945928454102	5
0	4947	7664.847059288999	4
0	4949	7665.883367668733	3
0	4951	7666.468275542786	4
0	4954	7668.040503019644	3
0	4956	7673.043473107787	4
0	4959	7676.059157037112	5
0	4962	7690.216299348186	4
0	4964	7690.496144914691	3
0	4966	7701.895400685246	4
0	4969	7708.068065577343	5
0	4972	7714.472448700946	4
0	4974	7716.276842610531	5
0	4977	7717.376583540034	6
0	4980	7717.475616849891	5
0	4982	7722.993475546034	4
0	4984	7723.656153730502	3
0	4986	7727.946078743662	2
0	4988	7731.516972324888	1
0	4990	7735.256573662916	2
0	4993	7742.056807184106	3
0	4996	7744.276399346253	4
0	4999	7746.364302709551	5
0	5002	7754.215598113454	4
0	5004	7762.3745525544	3
0	5006	7771.526795757266	2
0	5008	7772.855027874396	1
0	5010	7776.090219984446	2
0	5013	7777.678667283984	3
0	5016	7786.704346079924	4
0	5019	7788.038346718285	5
0	5022	7804.923431569653	4
0	5024	7805.472782663631	3
0	5026	7806.61664809546	4
0	5029	7807.237153230196	5
0	5032	7811.366395767585	4
0	5034	7811.685956068424	5
0	5037	7817.665416310769	6
0	5040	7824.749646331364	7
0	5043	7828.507066551878	6
0	5045	7828.8651873201	5
0	5047	7832.217397303811	6
0	5050	7834.233283424727	5
0	5052	7835.112284360816	4
0	5054	7840.772407940588	3
0	5056	7841.067983476191	2
0	5058	7848.887136875728	3
0	5061	7864.358787510725	2
0	5063	7866.996398112877	3
0	5066	7867.68061599296	4
0	5069	7868.465449586206	3
0	5071	7883.607708216887	2
0	5073	7884.236988243319	3
0	5076	7888.625815950904	4
0	5079	7890.499692018596	3
0	5081	7890.923926727485	4
0	5084	7896.12638548925	5
0	5087	7902.721763980779	6
0	5090	7903.553051265107	5
0	5092	7906.951540818246	4
0	5094	7910.144468066091	3
0	5096	7913.545973172286	4
0	5099	7915.364918684742	3
0	5101	7916.077480970831	4
0	5104	7916.754841992106	5
0	5107	7917.121673904822	6
0	5110	7919.848866659968	7
0	5113	7921.105066204152	6
0	5115	7923.792246248795	7
0	5118	7925.370486673843	6
0	5120	7926.682996313204	5
0	5122	7929.331694062332	6
0	5125	7934.503563348525	5
0	5127	7943.391823067563	4
0	5129	7948.170200787444	5
0	5132	7952.452542739594	6
0	5135	7954.525603139967	7
0	5138	7959.496255905013	6
0	5140	7962.182685426603	5
0	5142	7968.108137585138	6
0	5145	7969.908792566024	7
0	5148	7970.609603666296	6
0	5150	7973.202771774103	5
0	5152	7974.985875349473	4
0	5154	7981.450220066292	5
0	5157	7987.222537015166	4
0	5159	7988.305270411646	5
0	5162	7991.527490539741	4
0	5164	7992.401226861967	3
0	5166	7995.085722302637	2
0	5168	7995.185639062643	3
0	5171	7995.306221525404	4
0	5174	7999.82238748149	5
0	5177	8004.555332585666	4
0	5179	8005.79381293969	3
0	5181	8017.740953306873	2
0	5183	8019.214192597855	3
0	5186	8030.468135428322	2
0	5188	8033.051979722072	3
0	5191	8035.810445066636	2
0	5193	8037.362818084276	3
0	5196	8037.646305357791	4
0	5199	8043.128536486515	5
0	5202	8052.02742786496	6
0	5205	8058.485480635359	7
0	5208	8058.597702166014	8
0	5210	8060.316434900061	9
0	5212	8063.034813980406	8
0	5215	8066.178114387271	9
0	5217	8069.136984998374	10
0	5219	8072.37830346303	9
0	5222	8072.760809568564	10
0	5224	8081.200776105343	9
0	5227	8081.826559203379	10
0	5229	8083.872041985002	11
0	5231	8085.450900227399	12
0	5233	8087.683019213215	13
0	5235	8091.807228524616	12
0	5238	8094.028534460456	13
0	5240	8094.118823135052	14
0	5242	8094.7754996791	15
0	5244	8099.262546880494	14
0	5247	8099.354956850424	13
0	5250	8104.796644910148	12
0	5253	8112.600433232213	11
0	5256	8118.874907799977	10
0	5259	8119.646267553426	11
0	5261	8120.218596988544	10
0	5264	8127.185692229472	11
0	5266	8128.870723880655	10
0	5269	8132.210011310859	9
0	5272	8136.7851580487	8
0	5275	8139.517161011696	9
0	5277	8139.613153168928	8
0	5280	8140.025764945884	7
0	5283	8141.700144948073	6
0	5285	8142.956472320637	7
0	5288	8145.274532366523	6
0	5290	8149.850114740952	7
0	5293	8152.106863713163	8
0	5295	8154.024157351406	9
0	5297	8154.413187868703	8
0	5300	8156.461021817777	7
0	5303	8169.292762127583	8
0	5305	8175.047038236334	9
0	5307	8180.917583027105	10
0	5309	8190.470493445839	11
0	5311	8191.763770686348	12
0	5313	8194.260070768671	13
0	5315	8196.733849965087	14
0	5317	8205.113774070078	15
0	5319	8206.374026274242	16
0	5321	8208.309263853044	17
0	5323	8217.399693902618	16
0	5326	8218.079253722798	15
0	5329	8219.423294466577	14
0	5332	8222.487706703654	13
0	5335	8223.768671966084	14
0	5337	8224.277511467449	13
0	5340	8235.268555977904	12
0	5343	8237.201365129048	13
0	5345	8237.208376294769	14
0	5347	8241.541973121117	13
0	5350	8242.486201012719	12
0	5353	8244.200352805051	13
0	5355	8245.345773324837	12
0	5358	8245.772359340048	11
0	5361	8250.587807789655	10
0	5364	8255.89015322403	11
0	5366	8269.405590466535	10
0	5369	8271.204058339001	11
0	5371	8271.359746040119	12
0	5373	8272.143829720448	11
0	5376	8273.189446349882	12
0	5378	8277.889285127808	13
0	5380	8282.686954897797	14
0	5382	8285.857445000008	15
0	5384	8286.096938005693	14
0	5387	8287.476840408073	13
0	5390	8297.101435232983	12
0	5393	8299.70451238829	11
0	5396	8308.346471053752	12
0	5398	8310.438940334365	13
0	5400	8319.208200468104	12
0	5403	8321.127146947452	11
0	5406	8321.213145826527	10
0	5409	8321.407178248516	9
0	5412	8323.626754343937	10
0	5414	8326.262356079325	11
0	5416	8333.471912095158	12
0	5418	8339.130377108221	11
0	5421	8342.33437462033	10
0	5424	8346.03806317851	9
0	5427	8349.149256149962	8
0	5430	8358.765672064256	9
0	5432	8359.337381631801	8
0	5435	8359.941790534413	9
0	5437	8364.89773634299	10
0	5439	8396.797663276528	9
0	5442	8401.089395816226	10
0	5444	8403.459023221083	9
0	5447	8403.792486962955	8
0	5450	8404.176693830024	9
0	5452	8410.91860446369	10
0	5454	8411.360898171178	9
0	5457	8416.100711766959	8
0	5460	8424.071849634742	9
0	5462	8424.221880838119	8
0	5465	8424.377044679091	7
0	5468	8424.947823715432	8
0	5470	8425.524049508536	7
0	5473	8425.620805847857	6
0	5475	8432.931750550798	5
0	5477	8433.587168888953	4
0	5479	8437.899103138472	3
0	5481	8438.936001979988	2
0	5483	8452.42490325694	1
0	5485	8453.509234309808	2
0	5488	8454.260901902919	3
0	5491	8456.229747405976	4
0	5494	8460.360689175979	3
0	5496	8461.16467544877	2
0	5498	8468.490053301348	3
0	5501	8469.280214502327	2
0	5503	8479.70048034243	3
0	5506	8480.466795593914	4
0	5509	8501.671365020509	5
0	5512	8506.502647690572	6
0	5515	8508.548569986743	7
0	5518	8510.567265692853	8
0	5520	8511.06736530458	9
0	5522	8522.953979720266	8
0	5525	8530.344579774534	7
0	5528	8532.910202999488	6
0	5530	8540.800975798246	5
0	5532	8541.51343873477	6
0	5535	8542.318051746481	5
0	5537	8545.815971164531	4
0	5539	8549.827688995899	3
0	5541	8555.695576417592	4
0	5544	8564.197172366964	5
0	5547	8567.918853661904	6
0	5550	8570.096679407996	7
0	5553	8575.08100820773	6
0	5555	8581.132122534674	5
0	5557	8589.530054898895	6
0	5560	8591.847078380674	5
0	5562	8598.109878811636	4
0	5564	8606.780674202127	3
0	5566	8608.978506567089	2
0	5568	8615.368100771909	3
0	5571	8618.20774056928	4
0	5574	8619.900903002013	5
0	5577	8634.560420161614	4
0	5579	8636.128519963753	5
0	5582	8637.611573795749	6
0	5585	8637.939066776662	5
0	5587	8639.800992805966	4
0	5589	8643.770488295647	3
0	5591	8644.449041728525	2
0	5593	8644.504280598657	3
0	5596	8668.551201450453	2
0	5598	8670.679759290848	3
0	5601	8672.760446043373	4
0	5604	8678.586289085648	3
0	5606	8683.835026438178	2
0	5608	8710.606754751351	1
0	5610	8712.316011739075	2
0	5613	8714.808741029264	3
0	5616	8721.127399874533	2
0	5618	8721.526847603659	3
0	5621	8723.293609680429	2
0	5623	8726.78043666998	1
0	5625	8736.473317163374	2
0	5628	8737.804567614653	3
0	5631	8746.199306989996	4
0	5634	8754.545415682202	5
0	5637	8755.192058172524	6
0	5640	8756.773289000282	7
0	5643	8759.997507547582	8
0	5645	8760.608654984229	9
0	5647	8764.278495461256	8
0	5650	8764.596857960273	7
0	5653	8764.955773400293	8
0	5655	8765.983142696227	7
0	5658	8768.91917882586	8
0	5660	8769.773626805296	7
0	5663	8771.416519183701	6
0	5665	8772.683526217074	5
0	5667	8772.713125508616	4
0	5669	8777.590024590955	3
0	5671	8785.146099210942	4
0	5674	8787.288105515266	3
0	5676	8788.679560261179	2
0	5678	8788.819798459752	3
0	5681	8793.944030128407	4
0	5684	8795.50812216481	5
0	5687	8797.84993583648	6
0	5690	8802.273019087823	5
0	5692	8806.360538961519	4
0	5694	8816.428517380397	3
0	5696	8821.297059818265	4
0	5699	8821.361476942734	5
0	5702	8824.049380340806	6
0	5705	8829.775821211613	5
0	5707	8835.584475577866	6
0	5710	8836.092066649354	5
0	5712	8836.500180985472	4
0	5714	8843.392711530333	3
0	5716	8844.803920966513	4
0	5719	8847.596864926514	5
0	5722	8855.391376742268	4
0	5724	8855.458077641386	3
0	5726	8870.100117333049	2
0	5728	8870.900519193013	3
0	5731	8871.070782627809	4
0	5734	8875.247713539468	5
0	5737	8881.408545312831	6
0	5740	8886.473171659139	7
0	5743	8887.477547987544	6
0	5745	8889.029746143903	5
0	5747	8889.195949321119	4
0	5749	8890.670494443321	3
0	5751	8899.886264228849	4
0	5754	8902.570964723337	5
0	5757	8902.870944143907	4
0	5759	8904.492025174207	5
0	5762	8911.03621623061	6
0	5765	8914.629799994262	7
0	5768	8920.287755325389	6
0	5770	8921.875678960941	5
0	5772	8926.102598379243	4
0	5774	8929.089700503547	5
0	5777	8932.74522362118	4
0	5779	8936.036218048405	3
0	5781	8936.924814096253	4
0	5784	8948.51369279088	5
0	5787	8952.830276039157	6
0	5790	8956.354905949765	5
0	5792	8960.312156063707	6
0	5795	8966.942879285959	5
0	5797	8968.091518290493	4
0	5799	8968.279515456586	5
0	5802	8975.797054942894	6
0	5805	8979.427883828343	7
0	5808	8984.945597231762	6
0	5810	8991.129352129225	5
0	5812	9002.050589231329	4
0	5814	9002.540530117513	5
0	5817	9002.717496411946	4
0	5819	9008.109033221593	3
0	5821	9010.879777948892	2
0	5823	9027.063889218304	3
0	5826	9027.87373876985	4
0	5829	9028.576827733088	5
0	5832	9033.564890571006	4
0	5834	9033.967218669211	5
0	5837	9037.851090913624	6
0	5840	9040.688174779345	7
0	5843	9042.889869933087	8
0	5845	9043.076876567282	7
0	5848	9045.259296860931	6
0	5850	9046.404138678256	7
0	5853	9052.721643451423	6
0	5855	9054.135331594447	5
0	5857	9054.539692689043	4
0	5859	9063.486874667538	5
0	5862	9066.617073755414	4
0	5864	9068.938986301454	5
0	5867	9071.650431831697	6
0	5870	9073.195780522657	5
0	5872	9087.273909164869	4
0	5874	9090.800021836332	3
0	5876	9091.346857549398	4
0	5879	9094.513715904512	5
0	5882	9099.349358473665	6
0	5885	9104.476421518923	5
0	5887	9111.831973352455	4
0	5889	9115.241399635213	5
0	5892	9118.400070753876	4
0	5894	9120.362401134656	5
0	5897	9123.774790838524	6
0	5900	9125.500481772423	5
0	5902	9135.149911706181	4
0	5904	9139.240948338509	5
0	5907	9140.821772699649	4
0	5909	9145.463005938956	3
0	5911	9149.002169890025	4
0	5914	9149.032730897967	3
0	5916	9153.557002924259	2
0	5918	9156.456578869503	3
0	5921	9176.293680354533	4
0	5924	9176.660525695258	5
0	5927	9182.256839855078	4
0	5929	9192.761306504705	3
0	5931	9200.148573392219	2
0	5933	9200.695815897172	3
0	5936	9211.149731952782	2
0	5938	9212.865351208172	3
0	5941	9220.740667993389	2
0	5943	9221.365340973694	3
0	5946	9223.324613199572	4
0	5949	9226.965360236525	5
0	5952	9231.653003596636	6
0	5955	9231.680543272058	5
0	5957	9238.594443901246	4
0	5959	9239.463143038438	5
0	5962	9239.557518630853	4
0	5964	9244.872987066568	3
0	5966	9248.151040549345	4
0	5969	9264.712413270113	5
0	5972	9269.738823933243	6
0	5975	9270.104075842888	7
0	5978	9273.091595860281	6
0	5980	9276.819297264127	7
0	5983	9278.250613063791	6
0	5985	9282.720138974936	7
0	5988	9282.819633166563	6
0	5990	9284.536298253254	5
0	5992	9287.381668784143	6
0	5995	9290.511654578732	5
0	5997	9292.201831169741	6
0	6000	9298.212974179083	5
0	6002	9299.092949216445	6
0	6005	9299.416705367988	5
0	6007	9303.234592039997	6
0	6010	9303.695278710147	7
0	6013	9306.547902226067	8
0	6015	9307.29604010164	7
0	6018	9310.796223801866	6
0	6020	9311.378491289908	5
0	6022	9312.80221561805	6
0	6025	9312.834028870715	5
0	6027	9315.955240798013	6
0	6030	9317.934047312233	5
0	6032	9318.23154831661	4
0	6034	9327.214281922832	5
0	6037	9333.686814073864	6
0	6040	9336.403055856331	7
0	6043	9336.5375384657	6
0	6045	9338.062331407405	5
0	6047	9344.005720008133	6
0	6050	9344.964661891246	7
0	6053	9346.580431911362	8
0	6055	9348.881285803928	9
0	6057	9350.196140717262	10
0	6059	9351.041074617893	9
0	6062	9352.961393209897	8
0	6065	9356.533118536321	9
0	6067	9359.63133856136	8
0	6070	9361.433157770626	7
0	6073	9363.115455045223	6
0	6075	9369.284765444621	7
0	6078	9369.430508990164	8
0	6080	9374.478799123242	7
0	6083	9374.725994079401	6
0	6085	9375.109404045735	7
0	6088	9375.689682740756	8
0	6090	9379.25523594813	9
0	6092	9379.561919785701	8
0	6095	9383.959313112484	9
0	6097	9385.384723593439	8
0	6100	9388.876710694693	7
0	6103	9390.70328285538	6
0	6105	9395.33055277806	7
0	6108	9401.542088981753	8
0	6110	9401.911453080857	7
0	6113	9408.7455993367	8
0	6115	9411.243719148921	7
0	6118	9414.490341629939	6
0	6120	9418.706315053294	7
0	6123	9418.881292914742	6
0	6125	9420.210518569403	5
0	6127	9425.392306532779	6
0	6130	9425.524849152047	5
0	6132	9426.054575797199	6
0	6135	9431.818082533966	7
0	6138	9435.374835982279	6
0	6140	9443.165252041337	5
0	6142	9445.180329966759	6
0	6145	9447.091868412327	5
0	6147	9458.101791357448	6
0	6150	9460.876883535744	7
0	6153	9461.811966064107	6
0	6155	9463.57255180409	5
0	6157	9472.152995486807	4
0	6159	9480.574249511226	3
0	6161	9490.606907539889	4
0	6164	9495.150055117647	3
0	6166	9506.080274601616	4
0	6169	9512.817100854781	3
0	6171	9513.557107970812	2
0	6173	9513.968433581718	1
0	6175	9517.859902909688	2
0	6178	9520.155096509857	3
0	6181	9534.330989440852	4
0	6184	9534.704669675085	5
0	6187	9536.690536776287	4
0	6189	9538.163016666177	5
0	6192	9538.204317846435	4
0	6194	9544.566761499741	3
0	6196	9546.266922004762	4
0	6199	9547.17919617017	3
0	6201	9549.422295812989	2
0	6203	9553.162391965827	1
0	6205	9556.809186848337	2
0	6208	9559.8884744112	3
0	6211	9564.011429873788	4
0	6214	9579.19195656216	5
0	6217	9599.066389024715	4
0	6219	9604.57587832902	5
0	6222	9613.40661310702	4
0	6224	9617.522497353664	3
0	6226	9624.979950090407	4
0	6229	9625.164248667013	5
0	6232	9635.66620077912	6
0	6235	9635.945946095785	7
0	6238	9639.192222954392	8
0	6240	9639.245209934692	7
0	6243	9644.087334813558	6
0	6245	9644.556805429567	5
0	6247	9645.432419766608	6
0	6250	9648.703255139702	5
0	6252	9650.274899814458	6
0	6255	9652.466163166537	7
0	6258	9656.99856519087	8
0	6260	9663.82357368944	7
0	6263	9664.633829640434	8
0	6265	9665.357678323621	9
0	6267	9669.6057791136	8
0	6270	9675.438205930818	7
0	6273	9685.377386036605	6
0	6275	9685.787407793096	7
0	6278	9686.930307387693	8
0	6280	9691.526957944254	7
0	6283	9691.596146644503	6
0	6285	9704.199582178802	5
0	6287	9708.654490059613	6
0	6290	9715.729865253349	5
0	6292	9716.461532523871	6
0	6295	9717.260841799185	7
0	6298	9718.165844007436	6
0	6300	9721.176920664726	5
0	6302	9722.547388236932	6
0	6305	9731.996862296263	5
0	6307	9738.271033721214	4
0	6309	9743.177857493738	3
0	6311	9744.467304544076	2
0	6313	9749.91199197579	3
0	6316	9751.446797791246	4
0	6319	9754.806105459984	5
0	6322	9759.009086077837	6
0	6325	9761.866950964536	5
0	6327	9763.403881047891	6
0	6330	9764.300482621234	7
0	6333	9769.104562277882	8
0	6335	9770.528368896659	7
0	6338	9775.498173459132	6
0	6340	9777.881205719224	7
0	6343	9781.819646575654	6
0	6345	9782.438614794664	5
0	6347	9789.182725351827	6
0	6350	9791.881124956329	5
0	6352	9792.88855043785	6
0	6355	9793.57672005	7
0	6358	9799.817835428262	6
0	6360	9802.718632620413	5
0	6362	9806.900879225838	4
0	6364	9809.139673137037	3
0	6366	9810.37880183928	2
0	6368	9811.050444065742	3
0	6371	9811.209416827795	4
0	6374	9811.894511540026	3
0	6376	9815.094845390734	4
0	6379	9816.307442695374	5
0	6382	9824.830828852224	4
0	6384	9826.198173935941	3
0	6386	9830.579283005148	4
0	6389	9831.14499751298	3
0	6391	9842.934458702825	4
0	6394	9853.618849223742	5
0	6397	9854.045209930275	4
0	6399	9855.452642697612	3
0	6401	9856.033218953574	4
0	6404	9861.437122708487	5
0	6407	9865.793933806381	6
0	6410	9866.101666385003	5
0	6412	9866.606992009789	4
0	6414	9867.538515722641	5
0	6417	9870.526318255439	4
0	6419	9872.63749934464	5
0	6422	9875.47319912069	4
0	6424	9882.909552007789	5
0	6427	9890.901408087102	4
0	6429	9892.628077488192	5
0	6432	9907.234385078235	6
0	6435	9910.408601807015	5
0	6437	9911.125139544178	4
0	6439	9914.416716271844	3
0	6441	9933.883353230276	2
0	6443	9941.076250256693	3
0	6446	9941.663883078796	2
0	6448	9950.499809145221	3
0	6451	9955.169129576776	4
0	6454	9960.857931459499	3
0	6456	9961.387311938248	4
0	6459	9962.810193295399	3
0	6461	9965.783304071585	4
0	6464	9965.886146918308	3
0	6466	9990.013678950217	2
0	6468	9990.188358618105	3
0	6471	9994.654773308488	4
0	6474	9997.326956530229	5
0	6477	9997.656875895999	6
0	6480	9997.930332709153	7
0	6483	10002.852641540237	6
0	6485	10004.67800162869	7
0	6488	10007.991397183283	8
0	6490	10008.15988057547	9
0	6492	10013.077478778362	10
0	6494	10016.100296088337	9
0	6497	10019.698973749061	8
0	6500	10020.251006772518	9
0	6502	10024.909614714251	8
0	6505	10025.957101020996	9
0	6507	10029.651254379563	8
0	6510	10030.907073716969	9
0	6512	10037.4903543608	8
0	6515	10037.729465119989	7
0	6518	10040.256695306078	8
0	6520	10040.3692963288	7
0	6523	10040.695905729285	6
0	6525	10044.493508075091	5
0	6527	10047.847184840469	6
0	6530	10051.643114322794	5
0	6532	10055.563483667017	4
0	6534	10057.297514530614	3
0	6536	10065.400315177702	2
0	6538	10068.857921016038	3
0	6541	10071.822204626791	4
0	6544	10079.86720030218	3
0	6546	10086.411839095743	2
0	6548	10099.689400808017	1
0	6550	10100.303387129062	2
0	6553	10110.110916021708	3
0	6556	10111.252210436763	4
0	6559	10115.580638075749	5
0	6562	10123.903796828751	4
0	6564	10126.897488635686	5
0	6567	10135.95291311913	4
0	6569	10137.794724984385	3
0	6571	10138.404633248252	4
0	6574	10141.682076071501	5
0	6577	10142.797605691472	4
0	6579	10152.669003744247	3
0	6581	10154.083320254457	2
0	6583	10154.870812844544	3
0	6586	10158.488785282262	4
0	6589	10168.360757338539	5
0	6592	10169.453769736364	6
0	6595	10169.807178000445	7
0	6598	10171.531699475126	8
0	6600	10172.51628297009	7
0	6603	10175.86144374652	6
0	6605	10176.769044699282	5
0	6607	10177.2811407033	4
0	6609	10177.949614983307	3
0	6611	10181.36447028302	4
0	6614	10182.656603887838	5
0	6617	10182.657641734179	4
0	6619	10184.146618076764	5
0	6622	10184.4770441235	6
0	6625	10187.18984734763	5
0	6627	10189.244157402664	6
0	6630	10189.487090582966	5
0	6632	10199.809500747525	6
0	6635	10200.05533547237	5
0	6637	10201.1795698032	4
0	6639	10220.939931336398	3
0	6641	10224.124266457941	2
0	6643	10227.026746189421	1
0	6645	10243.825951353249	2
0	6648	10245.796179913889	3
0	6651	10247.186277788615	4
0	6654	10256.038999736049	3
0	6656	10267.42550247738	4
0	6659	10269.004062222371	5
0	6662	10270.626392414721	4
0	6664	10270.762626949837	3
0	6666	10273.956983592965	4
0	6669	10277.189131157118	5
0	6672	10279.522747087762	4
0	6674	10280.578259428661	5
0	6677	10294.374235341664	6
0	6680	10295.187846767469	7
0	6683	10298.185499059244	8
0	6685	10298.758148727179	7
0	6688	10306.213967707459	6
0	6690	10308.47827174151	5
0	6692	10311.945902106542	4
0	6694	10313.740177252695	5
0	6697	10321.267894315424	6
0	6700	10329.039811314514	7
0	6703	10329.176596086053	8
0	6705	10333.679398922286	7
0	6708	10337.696513603161	6
0	6710	10338.486826965268	5
0	6712	10341.325937648912	6
0	6715	10342.005555062436	7
0	6718	10343.53721962197	8
0	6720	10344.929145280148	7
0	6723	10346.636748072102	8
0	6725	10347.441279318543	9
0	6727	10351.864088737967	8
0	6730	10351.931222119778	9
0	6732	10357.687832475552	8
0	6735	10362.769633641957	9
0	6737	10371.612378247013	8
0	6740	10390.955954322179	7
0	6743	10392.506004810897	8
0	6745	10395.974247223213	9
0	6747	10399.195781367276	10
0	6749	10399.657366248432	11
0	6751	10401.448198643663	12
0	6753	10401.486556539969	13
0	6755	10404.3076442701	14
0	6757	10406.044229378583	13
0	6760	10407.557792392516	12
0	6763	10415.141948788073	13
0	6765	10415.768827136731	14
0	6767	10416.55236171662	15
0	6769	10419.040412653669	16
0	6771	10421.210770975023	15
0	6774	10424.49272560945	14
0	6777	10427.936076574241	13
0	6780	10432.479351510483	12
0	6783	10432.785203084861	13
0	6785	10436.405138069021	12
0	6788	10436.699747513848	13
0	6790	10439.49638326368	14
0	6792	10450.973145462264	13
0	6795	10451.499753441179	14
0	6797	10452.448766737025	13
0	6800	10459.694263358422	12
0	6803	10460.555844239225	13
0	6805	10465.637861763485	12
0	6808	10466.18966718372	11
0	6811	10473.133373337866	12
0	6813	10478.778956753348	11
0	6816	10482.110248736911	12
0	6818	10489.938810997946	13
0	6820	10495.827053810717	12
0	6823	10501.551894912179	11
0	6826	10502.071299450122	12
0	6828	10503.213048950363	11
0	6831	10509.25809694842	10
0	6834	10511.011050523559	9
0	6837	10513.18695286136	10
0	6839	10518.077639062428	11
0	6841	10522.462373911999	10
0	6844	10522.970143770404	9
0	6847	10531.488450031839	8
0	6850	10536.138657251371	9
0	6852	10539.056160651525	8
0	6855	10541.488402640352	7
0	6858	10542.864353325869	6
0	6860	10544.685033680916	5
0	6862	10549.851261631904	6
0	6865	10551.404596198206	5
0	6867	10552.719560959335	6
0	6870	10555.21440700812	7
0	6873	10559.480653865193	8
0	6875	10559.867582377802	7
0	6878	10561.340763060211	6
0	6880	10566.362507324609	7
0	6883	10573.93775495808	6
0	6885	10575.674443422533	5
0	6887	10575.936979658984	4
0	6889	10579.280919318006	5
0	6892	10581.803862975519	6
0	6895	10581.897760483439	7
0	6898	10584.126819909552	8
0	6900	10584.858791648449	7
0	6903	10584.881809408152	6
0	6905	10597.309470202035	7
0	6908	10598.03722814197	8
0	6910	10598.728503479419	9
0	6912	10602.818812357705	8
0	6915	10603.223703566795	7
0	6918	10604.163241781329	6
0	6920	10605.293892331925	5
0	6922	10605.469605638656	4
0	6924	10611.88724470212	3
0	6926	10612.162441170078	4
0	6929	10614.14946380277	5
0	6932	10618.79624720578	4
0	6934	10622.330384873191	3
0	6936	10628.04754733581	4
0	6939	10649.914049436223	5
0	6942	10658.206090569375	6
0	6945	10664.707757708245	7
0	6948	10665.708900485249	6
0	6950	10668.124334626409	5
0	6952	10673.732421899999	4
0	6954	10676.58086213064	3
0	6956	10677.717706679382	4
0	6959	10682.820833843742	5
0	6962	10684.872186850135	6
0	6965	10687.273801958465	7
0	6968	10687.693680208676	6
0	6970	10688.502165266273	5
0	6972	10699.932856426483	6
0	6975	10700.227298337059	7
0	6978	10700.769811719338	6
0	6980	10715.624230150965	5
0	6982	10719.976584780306	6
0	6985	10720.464963409553	5
0	6987	10720.628228094318	6
0	6990	10729.854222473235	5
0	6992	10740.201432291948	6
0	6995	10743.9361998193	7
0	6998	10748.319345002839	8
0	7000	10748.564275161272	7
0	7003	10754.935520509434	6
0	7005	10755.1067929275	5
0	7007	10760.161878207689	4
0	7009	10769.641087805663	5
0	7012	10769.990595399089	4
0	7014	10777.422391877651	5
0	7017	10784.963355351255	6
0	7020	10786.462243243933	5
0	7022	10790.275794638069	6
0	7025	10790.96037779473	5
0	7027	10797.321291850553	6
0	7030	10805.434887858154	7
0	7033	10805.725961724895	6
0	7035	10807.480895587661	5
0	7037	10812.696513014538	4
0	7039	10818.646769901511	5
0	7042	10822.852589125671	4
0	7044	10823.35781997647	5
0	7047	10833.883827636762	4
0	7049	10846.501158334202	3
0	7051	10849.263681881495	2
0	7053	10850.681871712111	3
0	7056	10863.097510251345	4
0	7059	10865.057430409006	5
0	7062	10871.646083991557	6
0	7065	10872.181174848689	5
0	7067	10875.260347400132	4
0	7069	10877.67014977461	5
0	7072	10880.053809241842	6
0	7075	10883.774354449404	5
0	7077	10886.791046325724	4
0	7079	10903.295940239017	5
0	7082	10907.338064056919	6
0	7085	10913.887932516016	5
0	7087	10915.62185721156	6
0	7090	10917.999889030246	7
0	7093	10930.86004910742	8
0	7095	10948.912292113321	9
0	7097	10955.105200814698	10
0	7099	10959.263643827804	11
0	7101	10968.795401921508	10
0	7104	10969.350283830174	11
0	7106	10970.166021176574	12
0	7108	10977.215143769157	13
0	7110	10983.571424508802	12
0	7113	10984.158084725731	13
0	7115	10996.065788817414	12
0	7118	10996.249023901646	11
0	7121	11000.219227665064	10
0	7124	11004.106519705787	9
0	7127	11005.536305748969	8
0	7130	11005.579793690984	7
0	7133	11013.427415874402	6
0	7135	11015.320182092764	7
0	7138	11020.243933352287	8
0	7140	11023.722837066931	7
0	7143	11025.414430210718	8
0	7145	11027.873932696627	7
0	7148	11030.578280050412	8
0	7150	11031.80785062127	9
0	7152	11033.147002508395	8
0	7155	11035.091820171995	9
0	7157	11037.303646099825	10
0	7159	11038.75300684125	9
0	7162	11044.363778583274	8
0	7165	11049.571840936823	7
0	7168	11049.905063444525	6
0	7170	11053.745784875228	5
0	7172	11065.417714808071	6
0	7175	11067.188792219789	5
0	7177	11068.887244251639	6
0	7180	11071.00605178937	7
0	7183	11071.118123198394	8
0	7185	11079.578805608122	7
0	7188	11082.08905186033	8
0	7190	11082.123677930497	7
0	7193	11083.95893706877	6
0	7195	11085.941814411215	7
0	7198	11093.577631973535	6
0	7200	11093.685306214311	7
0	7203	11094.145773144325	8
0	7205	11100.213897063514	7
0	7208	11101.839974023633	6
0	7210	11106.806621113336	7
0	7213	11108.1764463899	6
0	7215	11112.949832406216	5
0	7217	11113.063613918873	4
0	7219	11118.502788367565	3
0	7221	11118.713285258179	2
0	7223	11125.698958626778	3
0	7226	11128.340340924751	4
0	7229	11132.007789026113	3
0	7231	11137.931705837835	2
0	7233	11141.324781550228	3
0	7236	11142.925333666184	4
0	7239	11145.580344755473	5
0	7242	11148.785128178943	6
0	7245	11150.857138890447	5
0	7247	11155.597454259683	6
0	7250	11160.962602445043	5
0	7252	11163.605639457499	6
0	7255	11167.888282501793	5
0	7257	11167.985969788129	4
0	7259	11171.536142143533	3
0	7261	11172.127756848115	2
0	7263	11180.076832852938	1
0	7265	11204.291745274388	2
0	7268	11219.44174598388	1
0	7270	11220.603635114649	2
0	7273	11225.759007301692	3
0	7276	11234.28600764789	2
0	7278	11243.482206928359	3
0	7281	11250.679154031148	2
0	7283	11254.271054999088	3
0	7286	11259.038659821764	4
0	7289	11261.081693612059	5
0	7292	11262.776351468812	4
0	7294	11266.856078301858	5
0	7297	11266.967719633693	6
0	7300	11281.218535846024	5
0	7302	11291.026332270565	6
0	7305	11293.927359605774	7
0	7308	11307.745103495207	6
0	7310	11313.592170706181	5
0	7312	11316.952464618332	4
0	7314	11317.64282830765	5
0	7317	11317.784540419128	4
0	7319	11317.888879891651	5
0	7322	11319.802988462021	4
0	7324	11320.819783074528	3
0	7326	11325.161430277713	2
0	7328	11330.869759187421	3
0	7331	11335.999165230632	2
0	7333	11342.629510661386	3
0	7336	11342.717367091642	4
0	7339	11342.994797426279	3
0	7341	11352.794577958817	4
0	7344	11358.439433897033	5
0	7347	11365.429648165729	4
0	7349	11367.442182743203	5
0	7352	11371.946496497713	6
0	7355	11380.785693710934	7
0	7358	11380.868501987517	8
0	7360	11381.159643579377	7
0	7363	11382.314791127995	8
0	7365	11384.729653528097	9
0	7367	11386.405578251133	8
0	7370	11387.559516985939	9
0	7372	11388.305461562311	10
0	7374	11396.704787571493	11
0	7376	11412.64950408666	10
0	7379	11417.768116985741	9
0	7382	11419.411695660935	8
0	7385	11419.437154285859	9
0	7387	11422.275609789503	8
0	7390	11424.236773674733	9
0	7392	11425.012882924688	10
0	7394	11429.047082543524	11
0	7396	11433.779853785694	10
0	7399	11435.823554016057	11
0	7401	11439.570488585615	12
0	7403	11442.766076009233	13
0	7405	11453.412470766092	12
0	7408	11455.011836755932	13
0	7410	11455.452867829408	12
0	7413	11459.99323575853	13
0	7415	11470.311494179323	14
0	7417	11484.266191336622	15
0	7419	11485.220846311096	14
0	7422	11489.740659311338	13
0	7425	11490.041987822046	12
0	7428	11492.121356217894	13
0	7430	11492.244962131595	14
0	7432	11493.938278620746	13
0	7435	11493.964485708507	12
0	7438	11495.035694087762	13
0	7440	11498.70002898224	12
0	7443	11501.299694117459	13
0	7445	11501.98128043523	14
0	7447	11502.391471092749	15
0	7449	11507.08198435877	14
0	7452	11517.526967096675	13
0	7455	11517.679892229922	14
0	7457	11517.739094954243	13
0	7460	11519.265091088225	14
0	7462	11519.632195587115	13
0	7465	11530.538041420798	14
0	7467	11534.246123877983	15
0	7469	11536.214625185197	14
0	7472	11539.184234823097	13
0	7475	11541.87485672089	14
0	7477	11543.397852111884	13
0	7480	11550.867841377018	12
0	7483	11559.01791838754	11
0	7486	11562.025894709316	10
0	7489	11563.601428128158	11
0	7491	11569.494501654606	12
0	7493	11571.082224122337	11
0	7496	11572.978439756842	10
0	7499	11578.269797423165	9
0	7502	11580.011019397631	8
0	7505	11580.503434068831	9
0	7507	11584.940479874531	8
0	7510	11585.954464149099	7
0	7513	11586.132467629709	6
0	7515	11590.440000392775	5
0	7517	11599.327504538859	4
0	7519	11611.082184847508	3
0	7521	11611.60958239649	2
0	7523	11619.279530591497	3
0	7526	11621.30683363344	4
0	7529	11624.020974514079	3
0	7531	11635.952071439362	4
0	7534	11638.017475790349	3
0	7536	11640.595551052684	4
0	7539	11668.064388322706	3
0	7541	11670.215875567092	2
0	7543	11680.018945685189	3
0	7546	11681.77571584963	2
0	7548	11692.884757807109	3
0	7551	11695.583152725113	2
0	7553	11707.44471756404	3
0	7556	11725.454656381546	4
0	7559	11725.664990699318	5
0	7562	11726.476984800635	6
0	7565	11733.527144399139	5
0	7567	11734.051449853497	4
0	7569	11742.731134024153	5
0	7572	11745.680989303011	6
0	7575	11752.772010798003	5
0	7577	11758.850831432683	4
0	7579	11760.185163689881	5
0	7582	11767.14333300432	4
0	7584	11769.984292643566	5
0	7587	11772.612284027807	4
0	7589	11788.249446423997	5
0	7592	11789.172134563444	4
0	7594	11793.453234588153	3
0	7596	11797.031740415667	4
0	7599	11807.338640319373	5
0	7602	11807.623250307515	4
0	7604	11813.247103631481	3
0	7606	11820.541929365561	4
0	7609	11821.333179974951	3
0	7611	11823.630432516053	2
0	7613	11829.86976723012	3
0	7616	11842.651355436088	2
0	7618	11850.676271170634	1
0	7620	11861.770436930218	2
0	7623	11866.118023795325	3
0	7626	11870.60261663832	4
0	7629	11880.297309751878	3
0	7631	11891.656215793166	2
0	7633	11900.888513507227	1
0	7635	11903.333493594788	2
0	7638	11910.507554194597	1
0	7640	11923.145172883762	2
0	7643	11935.561368446844	1
0	7645	11936.391779379855	0
0	7647	11954.1628860111	1
0	7650	11955.2073872306	2
0	7653	11972.737789876567	3
0	7656	11975.48270743107	4
0	7659	11976.405877072425	5
0	7662	11978.7356735902	4
0	7664	11983.55957222799	5
0	7667	11987.740475525638	4
0	7669	11989.08239173689	5
0	7672	11990.460558140261	6
0	7675	11990.804181879048	7
0	7678	11995.459480480473	8
0	7680	11997.428000520429	7
0	7683	12000.685169380426	8
0	7685	12002.773016414086	7
0	7688	12013.590480165029	6
0	7690	12018.884995246084	5
0	7692	12021.685694621966	6
0	7695	12022.082303873192	5
0	7697	12028.580285852887	6
0	7700	12031.368818592833	5
0	7702	12032.060274350531	6
0	7705	12032.373106909316	7
0	7708	12032.660252056495	8
0	7710	12032.694726301469	7
0	7713	12047.420147484773	8
0	7715	12047.714974272127	7
0	7718	12049.517697765085	6
0	7720	12054.361253929277	7
0	7723	12058.748367812452	6
0	7725	12060.859355417974	5
0	7727	12063.850410195561	6
0	7730	12065.701489202299	5
0	7732	12068.38770325337	4
0	7734	12071.672396737142	3
0	7736	12081.355678788152	4
0	7739	12083.489746582728	3
0	7741	12085.846825214044	4
0	7744	12088.929298968693	3
0	7746	12092.878958161172	4
0	7749	12093.55449927853	3
0	7751	12094.126854689179	4
0	7754	12101.367992047221	3
0	7756	12106.718741777996	2
0	7758	12108.903835696745	3
0	7761	12110.856847358166	4
0	7764	12111.914964393058	5
0	7767	12117.261964191728	4
0	7769	12118.992964608266	5
0	7772	12123.809418563321	6
0	7775	12130.441918596622	7
0	7778	12138.46033497467	8
0	7780	12144.646202382272	7
0	7783	12145.112940020634	8
0	7785	12145.903075610774	7
0	7788	12150.458638577707	6
0	7790	12153.835755087419	5
0	7792	12155.711798725799	6
0	7795	12159.690457903642	5
0	7797	12161.250967328856	6
0	7800	12161.972730637196	5
0	7802	12171.5516254186	6
0	7805	12176.464682561661	5
0	7807	12179.149407305624	4
0	7809	12184.911893494672	5
0	7812	12185.732774406771	6
0	7815	12189.836347512388	5
0	7817	12191.365397214797	6
0	7820	12193.926091500243	7
0	7823	12198.317902805156	8
0	7825	12198.678600328904	9
0	7827	12200.300494915756	8
0	7830	12203.079464310565	7
0	7833	12204.168354807483	8
0	7835	12204.810415116065	7
0	7838	12205.109046204191	8
0	7840	12206.768040106647	7
0	7843	12209.000801432628	8
0	7845	12211.678058507385	7
0	7848	12212.79336359154	8
0	7850	12213.089435171089	7
0	7853	12213.790030324052	8
0	7855	12218.839846457428	7
0	7858	12219.71096061022	8
0	7860	12219.91586262806	7
0	7863	12233.482171731149	6
0	7865	12233.929823190979	5
0	7867	12236.951107372141	6
0	7870	12237.853750207954	7
0	7873	12239.988603474037	6
0	7875	12243.325043132198	7
0	7878	12246.927227058384	6
0	7880	12249.351047821787	5
0	7882	12252.339598575799	6
0	7885	12264.456955784408	7
0	7888	12264.634329757422	8
0	7890	12266.268873134234	9
0	7892	12268.25728494658	10
0	7894	12273.295243735365	9
0	7897	12278.953532192539	8
0	7900	12279.97943808261	7
0	7903	12284.578134908996	6
0	7905	12284.789702098978	5
0	7907	12292.316441957885	6
0	7910	12299.305848162248	7
0	7913	12299.709116247665	8
0	7915	12309.774210947705	7
0	7918	12311.819103530463	8
0	7920	12313.255680972208	7
0	7923	12314.304029750073	8
0	7925	12318.412633010621	7
0	7928	12332.240524784968	6
0	7930	12340.556389457308	5
0	7932	12349.961130152202	6
0	7935	12350.741691516597	7
0	7938	12350.906426226736	8
0	7940	12352.488319628062	7
0	7943	12355.407345564301	8
0	7945	12361.176485078231	9
0	7947	12363.701416517078	8
0	7950	12368.680122912607	9
0	7952	12369.1781073347	10
0	7954	12371.367258194494	11
0	7956	12371.773022178238	10
0	7959	12375.033788691064	11
0	7961	12375.640081881526	10
0	7964	12375.869989160834	11
0	7966	12377.013826556798	10
0	7969	12377.5282637639	9
0	7972	12383.006919753334	10
0	7974	12383.379800361776	11
0	7976	12386.477286701248	10
0	7979	12388.221019569185	11
0	7981	12390.973482566355	12
0	7983	12392.829334381689	11
0	7986	12395.478650085581	10
0	7989	12398.976590506611	11
0	7991	12399.295021365693	12
0	7993	12399.499874424427	11
0	7996	12400.75378922453	10
0	7999	12407.853841099144	9
0	8002	12410.357727886911	8
0	8005	12410.606193928977	7
0	8008	12410.837319960846	6
0	8010	12413.39706570635	5
0	8012	12414.56759906142	6
0	8015	12426.017489898082	7
0	8018	12431.619089104732	6
0	8020	12433.276647849899	5
0	8022	12438.332744671473	4
0	8024	12438.564807169045	5
0	8027	12440.430411886448	4
0	8029	12445.506122992961	3
0	8031	12457.338628061177	2
0	8033	12459.615592917996	3
0	8036	12463.189930302335	4
0	8039	12466.010829533122	3
0	8041	12469.484764779319	4
0	8044	12478.899326629154	3
0	8046	12481.022622666123	4
0	8049	12484.981172533917	5
0	8052	12487.539925549225	6
0	8055	12489.024763826055	7
0	8058	12489.100298575265	6
0	8060	12489.577456773771	5
0	8062	12491.054286012391	4
0	8064	12492.535434412224	5
0	8067	12495.47338184309	4
0	8069	12507.463994502034	3
0	8071	12510.234399399949	4
0	8074	12527.644742103568	3
0	8076	12537.904001462357	4
0	8079	12539.755017442021	5
0	8082	12543.159020774991	6
0	8085	12544.423685173275	7
0	8088	12547.054251873627	6
0	8090	12547.273848494936	5
0	8092	12552.341237599232	6
0	8095	12556.464234944009	7
0	8098	12558.729205115003	6
0	8100	12572.432772969838	5
0	8102	12574.195929479529	4
0	8104	12577.631208502219	5
0	8107	12583.793523578349	4
0	8109	12586.896772278927	3
0	8111	12589.218240454268	2
0	8113	12591.107675368214	3
0	8116	12599.673091013251	4
0	8119	12602.319465319942	5
0	8122	12609.66263593987	4
0	8124	12611.189775214758	5
0	8127	12617.34581737874	4
0	8129	12619.038972455448	5
0	8132	12620.076842982103	4
0	8134	12622.677016537035	3
0	8136	12636.859989066279	4
0	8139	12637.874203576902	3
0	8141	12640.216845978413	4
0	8144	12641.050361358898	5
0	8147	12650.104135061041	6
0	8150	12650.494076684497	7
0	8153	12652.806295012562	8
0	8155	12654.327156085892	9
0	8157	12654.85514150497	8
0	8160	12674.489318458988	7
0	8163	12678.111183318952	6
0	8165	12680.74552382016	5
0	8167	12686.01049242766	6
0	8170	12686.918704101701	5
0	8172	12688.365764828236	6
0	8175	12694.129787962056	7
0	8178	12695.32249310339	8
0	8180	12696.889149632956	7
0	8183	12698.14295397544	8
0	8185	12698.662055666439	7
0	8188	12699.696047076222	8
0	8190	12703.900380226703	9
[...]
1	7496	11572.978439756842	3
1	7499	11578.269797423165	2
1	7502	11580.011019397631	1
1	7505	11580.503434068831	2
1	7507	11584.940479874531	1
1	7510	11585.954464149099	0
1	7513	11586.132467629709	0
1	7515	11590.440000392775	0
1	7517	11599.327504538859	0
1	7519	11611.082184847508	0
1	7521	11611.60958239649	0
1	7523	11619.279530591497	0
1	7526	11621.30683363344	0
1	7529	11624.020974514079	0
1	7531	11635.952071439362	0
1	7534	11638.017475790349	0
1	7536	11640.595551052684	0
1	7539	11668.064388322706	0
1	7541	11670.215875567092	0
1	7543	11680.018945685189	0
1	7546	11681.77571584963	0
1	7548	11692.884757807109	0
1	7551	11695.583152725113	0
1	7553	11707.44471756404	0
1	7556	11725.454656381546	0
1	7559	11725.664990699318	0
1	7562	11726.476984800635	0
1	7565	11733.527144399139	0
1	7567	11734.051449853497	0
1	7569	11742.731134024153	0
1	7572	11745.680989303011	0
1	7575	11752.772010798003	0
1	7577	11758.850831432683	0
1	7579	11760.185163689881	0
1	7582	11767.14333300432	0
1	7584	11769.984292643566	0
1	7587	11772.612284027807	0
1	7589	11788.249446423997	0
1	7592	11789.172134563444	0
1	7594	11793.453234588153	0
1	7596	11797.031740415667	0
1	7599	11807.338640319373	0
1	7602	11807.623250307515	0
1	7604	11813.247103631481	0
1	7606	11820.541929365561	0
1	7609	11821.333179974951	0
1	7611	11823.630432516053	0
1	7613	11829.86976723012	0
1	7616	11842.651355436088	0
1	7618	11850.676271170634	0
1	7620	11861.770436930218	0
1	7623	11866.118023795325	0
1	7626	11870.60261663832	0
1	7629	11880.297309751878	0
1	7631	11891.656215793166	0
1	7633	11900.888513507227	0
1	7635	11903.333493594788	0
1	7638	11910.507554194597	0
1	7640	11923.145172883762	0
1	7643	11935.561368446844	0
1	7645	11936.391779379855	0
1	7647	11954.1628860111	0
1	7650	11955.2073872306	0
1	7653	11972.737789876567	0
1	7656	11975.48270743107	0
1	7659	11976.405877072425	0
1	7662	11978.7356735902	0
1	7664	11983.55957222799	0
1	7667	11987.740475525638	0
1	7669	11989.08239173689	0
1	7672	11990.460558140261	0
1	7675	11990.804181879048	0
1	7678	11995.459480480473	1
1	7680	11997.428000520429	0
1	7683	12000.685169380426	1
1	7685	12002.773016414086	0
1	7688	12013.590480165029	0
1	7690	12018.884995246084	0
1	7692	12021.685694621966	0
1	7695	12022.082303873192	0
1	7697	12028.580285852887	0
1	7700	12031.368818592833	0
1	7702	12032.060274350531	0
1	7705	12032.373106909316	0
1	7708	12032.660252056495	1
1	7710	12032.694726301469	0
1	7713	12047.420147484773	1
1	7715	12047.714974272127	0
1	7718	12049.517697765085	0
1	7720	12054.361253929277	0
1	7723	12058.748367812452	0
1	7725	12060.859355417974	0
1	7727	12063.850410195561	0
1	7730	12065.701489202299	0
1	7732	12068.38770325337	0
1	7734	12071.672396737142	0
1	7736	12081.355678788152	0
1	7739	12083.489746582728	0
1	7741	12085.846825214044	0
1	7744	12088.929298968693	0
1	7746	12092.878958161172	0
1	7749	12093.55449927853	0
1	7751	12094.126854689179	0
1	7754	12101.367992047221	0
1	7756	12106.718741777996	0
1	7758	12108.903835696745	0
1	7761	12110.856847358166	0
1	7764	12111.914964393058	0
1	7767	12117.261964191728	0
1	7769	12118.992964608266	0
1	7772	12123.809418563321	0
1	7775	12130.441918596622	0
1	7778	12138.46033497467	1
1	7780	12144.646202382272	0
1	7783	12145.112940020634	1
1	7785	12145.903075610774	0
1	7788	12150.458638577707	0
1	7790	12153.835755087419	0
1	7792	12155.711798725799	0
1	7795	12159.690457903642	0
1	7797	12161.250967328856	0
1	7800	12161.972730637196	0
1	7802	12171.5516254186	0
1	7805	12176.464682561661	0
1	7807	12179.149407305624	0
1	7809	12184.911893494672	0
1	7812	12185.732774406771	0
1	7815	12189.836347512388	0
1	7817	12191.365397214797	0
1	7820	12193.926091500243	0
1	7823	12198.317902805156	1
1	7825	12198.678600328904	2
1	7827	12200.300494915756	1
1	7830	12203.079464310565	0
1	7833	12204.168354807483	1
1	7835	12204.810415116065	0
1	7838	12205.109046204191	1
1	7840	12206.768040106647	0
1	7843	12209.000801432628	1
1	7845	12211.678058507385	0
1	7848	12212.79336359154	1
1	7850	12213.089435171089	0
1	7853	12213.790030324052	1
1	7855	12218.839846457428	0
1	7858	12219.71096061022	1
1	7860	12219.91586262806	0
1	7863	12233.482171731149	0
1	7865	12233.929823190979	0
1	7867	12236.951107372141	0
1	7870	12237.853750207954	0
1	7873	12239.988603474037	0
1	7875	12243.325043132198	0
1	7878	12246.927227058384	0
1	7880	12249.351047821787	0
1	7882	12252.339598575799	0
1	7885	12264.456955784408	0
1	7888	12264.634329757422	1
1	7890	12266.268873134234	2
1	7892	12268.25728494658	3
1	7894	12273.295243735365	2
1	7897	12278.953532192539	1
1	7900	12279.97943808261	0
1	7903	12284.578134908996	0
1	7905	12284.789702098978	0
1	7907	12292.316441957885	0
1	7910	12299.305848162248	0
1	7913	12299.709116247665	1
1	7915	12309.774210947705	0
1	7918	12311.819103530463	1
1	7920	12313.255680972208	0
1	7923	12314.304029750073	1
1	7925	12318.412633010621	0
1	7928	12332.240524784968	0
1	7930	12340.556389457308	0
1	7932	12349.961130152202	0
1	7935	12350.741691516597	0
1	7938	12350.906426226736	1
1	7940	12352.488319628062	0
1	7943	12355.407345564301	1
1	7945	12361.176485078231	2
1	7947	12363.701416517078	1
1	7950	12368.680122912607	2
1	7952	12369.1781073347	3
1	7954	12371.367258194494	4
1	7956	12371.773022178238	3
1	7959	12375.033788691064	4
1	7961	12375.640081881526	3
1	7964	12375.869989160834	4
1	7966	12377.013826556798	3
1	7969	12377.5282637639	2
1	7972	12383.006919753334	3
1	7974	12383.379800361776	4
1	7976	12386.477286701248	3
1	7979	12388.221019569185	4
1	7981	12390.973482566355	5
1	7983	12392.829334381689	4
1	7986	12395.478650085581	3
1	7989	12398.976590506611	4
1	7991	12399.295021365693	5
1	7993	12399.499874424427	4
1	7996	12400.75378922453	3
1	7999	12407.853841099144	2
1	8002	12410.357727886911	1
1	8005	12410.606193928977	0
1	8008	12410.837319960846	0
1	8010	12413.39706570635	0
1	8012	12414.56759906142	0
1	8015	12426.017489898082	0
1	8018	12431.619089104732	0
1	8020	12433.276647849899	0
1	8022	12438.332744671473	0
1	8024	12438.564807169045	0
1	8027	12440.430411886448	0
1	8029	12445.506122992961	0
1	8031	12457.338628061177	0
1	8033	12459.615592917996	0
1	8036	12463.189930302335	0
1	8039	12466.010829533122	0
1	8041	12469.484764779319	0
1	8044	12478.899326629154	0
1	8046	12481.022622666123	0
1	8049	12484.981172533917	0
1	8052	12487.539925549225	0
1	8055	12489.024763826055	0
1	8058	12489.100298575265	0
1	8060	12489.577456773771	0
1	8062	12491.054286012391	0
1	8064	12492.535434412224	0
1	8067	12495.47338184309	0
1	8069	12507.463994502034	0
1	8071	12510.234399399949	0
1	8074	12527.644742103568	0
1	8076	12537.904001462357	0
1	8079	12539.755017442021	0
1	8082	12543.159020774991	0
1	8085	12544.423685173275	0
1	8088	12547.054251873627	0
1	8090	12547.273848494936	0
1	8092	12552.341237599232	0
1	8095	12556.464234944009	0
1	8098	12558.729205115003	0
1	8100	12572.432772969838	0
1	8102	12574.195929479529	0
1	8104	12577.631208502219	0
1	8107	12583.793523578349	0
1	8109	12586.896772278927	0
1	8111	12589.218240454268	0
1	8113	12591.107675368214	0
1	8116	12599.673091013251	0
1	8119	12602.319465319942	0
1	8122	12609.66263593987	0
1	8124	12611.189775214758	0
1	8127	12617.34581737874	0
1	8129	12619.038972455448	0
1	8132	12620.076842982103	0
1	8134	12622.677016537035	0
1	8136	12636.859989066279	0
1	8139	12637.874203576902	0
1	8141	12640.216845978413	0
1	8144	12641.050361358898	0
1	8147	12650.104135061041	0
1	8150	12650.494076684497	0
1	8153	12652.806295012562	1
1	8155	12654.327156085892	2
1	8157	12654.85514150497	1
1	8160	12674.489318458988	0
1	8163	12678.111183318952	0
1	8165	12680.74552382016	0
1	8167	12686.01049242766	0
1	8170	12686.918704101701	0
1	8172	12688.365764828236	0
1	8175	12694.129787962056	0
1	8178	12695.32249310339	1
1	8180	12696.889149632956	0
1	8183	12698.14295397544	1
1	8185	12698.662055666439	0
1	8188	12699.696047076222	1
1	8190	12703.900380226703	2
1	8192	12705.845659907609	3
1	8194	12708.243973641207	4
1	8196	12711.404102605695	3
1	8199	12715.571265735238	2
1	8202	12719.221401444131	3
1	8204	12721.295324771966	4
1	8206	12722.348231696622	3
1	8209	12723.073769736568	2
1	8212	12730.841468267279	1
1	8215	12735.075088086755	0
1	8218	12738.821743708672	0
1	8220	12740.886301540471	0
1	8222	12749.306531306069	0
1	8225	12753.811502790223	0
1	8227	12754.956089367871	0
1	8230	12756.171320162799	0
1	8232	12761.426192088307	0
1	8234	12772.20603421544	0
1	8237	12777.157833668126	0
1	8240	12779.595690011222	0
1	8242	12780.353392680959	0
1	8245	12782.339801374973	0
1	8247	12790.850528673681	0
1	8249	12794.16216465428	0
1	8252	12795.213230752075	0
1	8254	12803.394403624056	0
1	8256	12804.787572849751	0
1	8259	12805.62771647603	0
1	8262	12807.378192542696	0
1	8264	12811.437153803675	0
1	8266	12813.563383692097	0
1	8268	12814.357181673828	0
1	8271	12816.658022627707	0
1	8273	12823.814918269395	0
1	8275	12832.345888461154	0
1	8278	12833.503040626882	0
1	8281	12836.881705946957	0
1	8284	12837.010484431427	0
1	8287	12837.680045712054	0
1	8290	12840.935059126307	0
1	8292	12843.637023070001	0
1	8295	12851.911126892415	0
1	8297	12852.270916107594	0
1	8299	12854.669257324804	0
1	8302	12854.747303237898	0
1	8304	12856.68644323581	0
1	8306	12859.560849290776	0
1	8308	12872.242238203595	0
1	8311	12876.564593067722	0
1	8314	12879.454041853351	0
1	8316	12881.817093998677	0
1	8318	12886.987278723572	0
1	8321	12891.484398210927	0
1	8323	12901.336417649036	0
1	8326	12910.590287723716	0
1	8329	12910.651145977258	0
1	8331	12911.146558442621	0
1	8334	12915.01755876966	0
1	8336	12915.105346184991	0
1	8339	12918.800097652577	0
1	8341	12920.37493735447	0
1	8343	12925.353176668571	0
1	8346	12925.787869097758	0
1	8348	12927.904454479801	0
1	8351	12929.9023770322	0
1	8353	12931.52830455793	0
1	8356	12937.722052973948	0
1	8359	12938.564550209022	0
1	8362	12938.926732424035	0
1	8364	12948.579941521758	0
1	8367	12951.526821035864	0
1	8370	12951.594627748083	0
1	8372	12955.638345881355	0
1	8374	12958.298976243896	0
1	8376	12962.889612074195	0
1	8378	12970.024804690722	0
1	8381	12971.155021872486	0
1	8384	12972.909540051288	0
1	8386	12973.786366812345	0
1	8388	12977.917492516118	0
1	8390	12982.692140871601	0
1	8393	12984.468759056426	0
1	8395	12988.363357135891	0
1	8398	12988.670696900474	0
1	8400	12990.587305884859	0
1	8403	12991.012756148308	0
1	8406	13000.193717679788	0
1	8409	13006.051665813766	0
1	8411	13014.441468885278	0
1	8414	13016.896842293306	0
1	8417	13019.485092456086	0
1	8420	13019.719439417136	0
1	8422	13021.334021722208	0
1	8424	13029.147092974921	0
1	8427	13029.353176405057	0
1	8430	13032.646910635429	0
1	8432	13038.718792781853	0
1	8435	13041.052056448602	0
1	8437	13043.705212796108	0
1	8439	13051.600608235683	0
1	8441	13064.242218841495	0
1	8443	13071.939221765268	0
1	8446	13081.628863892199	0
1	8448	13082.496762783285	0
1	8451	13086.212096567659	0
1	8453	13088.808411862922	0
1	8456	13090.970211609096	0
1	8458	13102.312114207536	0
1	8461	13105.468911298779	0
1	8464	13106.753218824445	0
1	8466	13106.890382706968	0
1	8468	13109.959779260331	0
1	8471	13117.887544433584	0
1	8474	13126.952244815975	0
1	8477	13133.001720350112	0
1	8479	13144.495296330732	0
1	8482	13151.332103824547	0
1	8484	13161.194890236672	0
1	8486	13165.492318247172	0
1	8489	13166.393041143331	0
1	8491	13171.160259206217	0
1	8494	13176.501119085097	0
1	8496	13189.427241672117	0
1	8498	13194.185952044394	0
1	8501	13200.239749269721	0
1	8503	13205.553047014053	0
1	8506	13206.22771866632	0
1	8509	13214.000771780264	0
1	8512	13214.608830873565	0
1	8515	13214.807780008939	0
1	8517	13227.487319173498	0
1	8519	13227.791020393922	0
1	8521	13228.36504813706	0
1	8524	13229.965807196413	0
1	8526	13232.750087763277	0
1	8529	13233.118902308392	0
1	8532	13234.083764701573	0
1	8534	13248.848774863843	0
1	8537	13251.355417046263	0
1	8540	13251.988706664757	0
1	8542	13252.197705034289	0
1	8545	13254.488796775287	0
1	8548	13257.085709769673	1
1	8550	13258.449749108785	0
1	8553	13260.713911480998	0
1	8555	13264.279474215684	0
1	8557	13267.834450921994	0
1	8559	13281.005880318144	0
1	8561	13287.570482672083	0
1	8564	13289.64345308816	0
1	8567	13289.738376960505	0
1	8569	13290.825309578647	0
1	8572	13308.233004956206	0
1	8574	13308.790597669197	0
1	8576	13316.036292111298	0
1	8579	13326.829910651249	0
1	8582	13327.65769342988	0
1	8585	13335.585152513937	0
1	8587	13335.586818997567	0
1	8590	13338.286870964701	0
1	8592	13343.036683504205	0
1	8595	13344.631090811497	0
1	8597	13345.777891818878	0
1	8600	13365.234346758455	0
1	8602	13375.034565488799	0
1	8605	13378.390212470928	0
1	8608	13387.044150979396	0
1	8610	13392.257643598511	0
1	8613	13393.363486191306	0
1	8615	13394.863519670244	0
1	8618	13403.148766742285	1
1	8620	13414.471873909549	2
1	8622	13415.795255293363	1
1	8625	13420.999177437152	0
1	8628	13421.089269710043	0
1	8630	13426.25739828216	0
1	8633	13435.181206372167	0
1	8635	13435.2670891768	0
1	8637	13436.877548765968	0
1	8640	13440.09751630776	0
1	8642	13440.650629188337	0
1	8644	13442.862567625756	0
1	8646	13443.822662153291	0
1	8649	13444.731858560643	0
1	8652	13447.763703765277	0
1	8654	13449.056329198852	0
1	8657	13451.037090963673	0
1	8660	13456.454925819037	0
1	8662	13457.270958124523	0
1	8665	13465.418841114761	0
1	8668	13470.306893754342	0
1	8670	13470.715669694721	0
1	8673	13470.792384778458	1
1	8675	13475.072304873466	2
1	8677	13479.966873822402	1
1	8680	13481.38483410274	0
1	8683	13483.597236209641	0
1	8685	13486.183965543612	0
1	8687	13489.815850514433	0
1	8689	13506.282150408249	0
1	8691	13509.917244082727	0
1	8694	13511.451913180221	0
1	8697	13511.956011816282	0
1	8700	13519.929162560501	0
1	8702	13520.310070935647	0
1	8704	13523.427389562443	0
1	8706	13528.710101034785	0
1	8709	13533.721498777172	0
1	8711	13542.506652788538	0
1	8713	13551.205733325062	0
1	8716	13562.232467134601	0
1	8719	13568.187406820576	0
1	8722	13571.539126586878	0
1	8725	13575.509888561344	0
1	8728	13577.983241101616	1
1	8730	13578.103737472547	2
1	8732	13578.504485766099	3
1	8734	13583.797666577233	2
1	8737	13583.931431250627	3
1	8739	13585.091122948946	2
1	8742	13586.685954467167	3
1	8744	13587.249306375557	4
1	8746	13589.112701033854	3
1	8749	13591.623489434148	4
1	8751	13597.775848659332	3
1	8754	13599.286338353445	2
1	8757	13604.809952902121	3
1	8759	13610.352855720152	2
1	8762	13614.720498265335	1
1	8765	13617.578510601409	0
1	8768	13623.231388250387	1
1	8770	13624.314034908617	0
1	8773	13624.940665493093	1
1	8775	13625.561312131713	2
1	8777	13628.694954943438	1
1	8780	13631.479878280789	0
1	8783	13635.439039363125	0
1	8785	13640.874370730643	0
1	8788	13642.233922533282	0
1	8790	13642.644672832824	0
1	8793	13653.286056103425	1
1	8795	13657.879681457613	2
1	8797	13659.666685942899	1
1	8800	13662.516617978934	0
1	8803	13665.865179527043	0
1	8805	13666.455280361123	0
1	8808	13666.571454374343	0
1	8810	13672.26146412897	0
1	8812	13678.475387074705	0
1	8814	13680.937767498553	0
1	8816	13681.704459195874	0
1	8818	13683.622098183895	0
1	8821	13684.873105304069	0
1	8824	13700.057312855958	0
1	8827	13709.570834527161	0
1	8830	13714.869782092544	0
1	8833	13715.368484568837	1
1	8835	13717.621673919677	0
1	8838	13722.21314859427	0
1	8840	13723.062108533943	0
1	8843	13725.531534943447	1
1	8845	13728.035226925464	0
1	8848	13734.927822567602	0
1	8850	13737.236550961377	0
1	8852	13741.095279562723	0
1	8855	13741.344403458136	0
1	8858	13747.050818523506	1
1	8860	13754.754813306464	2
1	8862	13758.900591053402	1
1	8865	13764.057164756349	0
1	8868	13765.280686229127	0
1	8870	13766.751584611011	0
1	8872	13767.801684796913	0
1	8874	13768.935524011736	0
1	8876	13771.67710549888	0
1	8879	13772.907849567054	0
1	8882	13776.786511917723	0
1	8884	13782.906635785242	0
1	8887	13797.559475983484	0
1	8889	13801.634295923555	0
1	8891	13801.651662500121	0
1	8894	13806.576731826961	0
1	8896	13807.935875505624	0
1	8899	13812.891191032628	0
1	8902	13819.638411395737	0
1	8904	13821.850383882374	0
1	8907	13822.263161020436	0
1	8909	13823.50018622784	0
1	8912	13839.297955464861	0
1	8914	13840.280647997497	0
1	8917	13850.398390606099	0
1	8919	13851.882204504072	0
1	8922	13859.161338784665	0
1	8924	13863.571835469326	0
1	8927	13863.987098175082	0
1	8929	13866.197127858866	0
1	8932	13870.136757419923	0
1	8935	13870.544700708476	0
1	8938	13881.533139763255	1
1	8940	13884.47169945351	2
1	8942	13885.769297847297	1
1	8945	13886.839135295186	0
1	8948	13889.761764012751	1
1	8950	13893.160235660716	0
1	8953	13895.203648736805	1
1	8955	13902.363943952269	0
1	8958	13902.440250735801	1
1	8960	13910.778956817583	0
1	8963	13912.314950946579	1
1	8965	13914.328871420791	0
1	8968	13918.863912326993	1
1	8970	13922.45917148398	0
1	8973	13923.232701429488	0
1	8975	13925.356580174822	0
1	8977	13926.145376347968	0
1	8979	13926.515015369861	0
1	8982	13934.355444268282	0
1	8984	13937.465633025256	0
1	8987	13939.289276973956	0
1	8989	13948.372769044625	0
1	8992	13953.85548538536	0
1	8994	13955.899555414964	0
1	8996	13968.126061240275	0
1	8999	13970.161815229827	0
1	9002	13976.319171465195	0
1	9005	13978.427445910241	0
1	9007	13982.616741688066	0
1	9009	13989.308932681071	0
1	9012	13999.233111194491	0
1	9014	14002.198400231822	0
1	9017	14005.888836221438	0
1	9020	14016.370668392139	0
1	9022	14026.521334960806	0
1	9025	14029.07511149436	0
1	9028	14029.238266005966	1
1	9030	14030.57559853965	2
1	9032	14030.934329262905	3
1	9034	14039.062517999665	2
1	9037	14040.498599924462	3
1	9039	14042.226180678273	2
1	9042	14042.608970915804	3
1	9044	14050.425373825954	2
1	9047	14060.623286489325	3
1	9049	14061.822153414379	2
1	9052	14064.636347010596	3
1	9054	14068.13056529808	2
1	9057	14071.964697856837	1
1	9060	14080.007238088002	2
1	9062	14081.105000153891	1
1	9065	14088.209760670344	2
1	9067	14095.12487343136	1
1	9070	14096.502164486818	2
1	9072	14097.106571770706	1
1	9075	14104.132031408159	0
1	9078	14115.342139404574	1
1	9080	14115.362319669673	2
1	9082	14121.490598945707	1
1	9085	14121.942788142082	2
1	9087	14129.429755006124	3
1	9089	14130.217578604561	2
1	9092	14134.114441755917	3
1	9094	14139.541159033143	2
1	9097	14142.353954190333	3
1	9099	14145.494239661501	2
1	9102	14145.982495861226	1
1	9105	14151.951205024769	2
1	9107	14157.22553280604	1
1	9110	14160.842052128328	0
1	9113	14165.742223917064	1
1	9115	14165.760813052245	2
1	9117	14167.387717435382	3
1	9119	14176.826854065784	2
1	9122	14179.256368310066	1
1	9125	14188.690260241924	0
1	9128	14191.855820586621	0
1	9130	14193.885389291229	0
1	9132	14195.970717379741	0
1	9134	14199.866081404092	0
1	9137	14200.316618822222	0
1	9139	14202.784238797517	0
1	9142	14206.346188584936	0
1	9144	14206.849609051599	0
1	9147	14207.17922399601	0
1	9150	14207.451003636388	0
1	9152	14218.228338854081	0
1	9154	14219.256985397038	0
1	9157	14222.594196473565	0
1	9160	14224.095546296659	0
1	9162	14225.644803249974	0
1	9164	14227.326708883777	0
1	9167	14237.412877939278	0
1	9169	14240.865505559856	0
1	9171	14244.686229500357	0
1	9174	14253.298261526543	0
1	9177	14254.135384110955	0
1	9179	14254.617221691633	0
1	9182	14256.211311066671	0
1	9185	14260.997664022786	0
1	9188	14262.007484648847	1
1	9190	14263.31942047413	2
1	9192	14263.612350599705	3
1	9194	14264.738073015281	2
1	9197	14266.00170650671	1
1	9200	14267.986946571607	0
1	9203	14269.501051851445	1
1	9205	14271.312381833044	0
1	9208	14276.837060719562	1
1	9210	14278.156463635505	2
1	9212	14283.733209117337	1
1	9215	14284.834415101108	0
1	9218	14285.196104205669	1
1	9220	14290.626280494792	0
1	9223	14295.820788082548	0
1	9225	14300.673883814449	0
1	9227	14301.576752059804	0
1	9229	14309.71447758836	0
1	9231	14311.825822178278	0
1	9234	14320.407220670113	0
1	9237	14322.733437425009	0
1	9240	14323.087296891991	0
1	9243	14324.361534673587	1
1	9245	14325.19872461815	0
1	9248	14327.104033021233	0
1	9250	14329.972961754326	0
1	9252	14331.062778245768	0
1	9254	14332.191169590362	0
1	9257	14342.388158319129	0
1	9260	14348.017085294674	0
1	9263	14357.78372107745	0
1	9265	14367.45998226041	0
1	9267	14370.682317518454	0
1	9269	14373.46195787481	0
1	9272	14376.583829404926	0
1	9274	14378.441782676281	0
1	9277	14381.659059824982	0
1	9280	14384.790233231439	0
1	9283	14386.047502325923	0
1	9285	14392.193808990292	0
1	9287	14398.567181919846	0

