version 2
run POLICY_1-0-20191213-12:40:09-1214
attr configname POLICY_1
attr datetime 20191213-12:40:09
attr experiment POLICY_1
attr inifile omnetpp.ini
attr iterationvars ""
attr iterationvarsf ""
attr measurement ""
attr network Carrefour
attr processid 1214
attr repetition 0
attr replication #0
attr resultdir results
attr runnumber 0
attr seedset 0
param **.policy 1
param **.delta 0s
param **.tillsNumber 7
param **.capacity 0.3
param **.meanInterArrivalTime 8s
param **.meanItemsInACart 12
param **.interArrivalDistribution 0
param **.itemsInCartDistribution 0

vector 0 Carrefour.decider stats_numCustomers:vector ETV
attr "" ""
attr source numCustomers
vector 1 Carrefour.decider stats_numCustomersQueue:vector ETV
attr "" ""
attr source numCustomersQueue
0	717	1201.644224712388	4
0	719	1203.331415964786	3
0	721	1204.115679166197	2
0	723	1216.18259243898	1
0	725	1228.211826146261	2
0	728	1228.670441557651	3
0	731	1234.010077874113	2
0	733	1236.098269532862	3
0	736	1240.89784462599	4
0	739	1251.651806803209	5
0	742	1251.813327828378	6
0	745	1252.133138220844	7
0	748	1255.064155695958	6
0	750	1256.79616533178	7
0	753	1259.043240965114	6
0	755	1259.45544725949	7
0	758	1261.176290904177	6
0	760	1277.385823077367	5
0	762	1282.57620933207	4
0	764	1290.588008242252	5
0	767	1291.612462364742	6
0	770	1294.389618763686	5
0	772	1294.554223967678	4
0	774	1295.1758180601	5
0	777	1297.985226775151	6
0	780	1303.23039705006	7
0	783	1304.241506141463	8
0	785	1307.682075037829	7
0	788	1313.083484787717	6
0	790	1313.576494353852	7
0	793	1316.638101944746	8
0	795	1317.287141584803	7
0	798	1325.465195106842	6
0	800	1333.631999520759	7
0	803	1337.911074526814	8
0	805	1338.611604883736	7
0	808	1350.757740418415	6
0	810	1355.015190149957	5
0	812	1357.942368791496	6
0	815	1358.472748003353	7
0	818	1360.427911588007	8
0	820	1361.767647337098	7
0	823	1364.160868221509	6
0	825	1369.861427804529	7
0	828	1372.72378845388	6
0	830	1375.947207782723	5
0	832	1376.524175933058	6
0	835	1378.931226820736	5
0	837	1380.348101402499	4
0	839	1383.21295618882	5
0	842	1389.108654895205	4
0	844	1399.238880368877	5
0	847	1399.504531885729	4
0	849	1400.848257838676	3
0	851	1401.70619908966	4
0	854	1407.396182587397	5
0	857	1413.322254190973	6
0	860	1413.545218126505	5
0	862	1427.488587223634	4
0	864	1429.747211543198	3
0	866	1433.206913046788	4
0	869	1433.996115514134	5
0	872	1434.465628062866	4
0	874	1454.318551577804	5
0	877	1457.606616192175	4
0	879	1461.181716706398	5
0	882	1461.875880565115	6
0	885	1483.069927994526	7
0	888	1485.672651318758	8
0	890	1486.136186371252	7
0	893	1488.741133031547	8
0	895	1488.756614812714	7
0	898	1488.81633903686	8
0	900	1489.729716170531	7
0	903	1491.011411790581	6
0	905	1497.623106317587	7
0	908	1497.877883238242	6
0	910	1498.582591461366	5
0	912	1500.271575741415	4
0	914	1500.758137899113	3
0	916	1512.401727525602	4
0	919	1513.532373234088	5
0	922	1521.866618467524	6
0	925	1531.09182368583	5
0	927	1531.946088948396	6
0	930	1536.308817750659	5
0	932	1546.676348720293	6
0	935	1549.409582056502	7
0	938	1550.606027501538	6
0	940	1551.869723846601	7
0	943	1553.488527355139	8
0	945	1556.41356373184	7
0	948	1557.546128341192	8
0	950	1562.691027984269	7
0	953	1564.611160676866	8
0	955	1567.120817217119	7
0	958	1567.655539074206	6
0	960	1568.518325147373	5
0	962	1571.049539875277	6
0	965	1571.212039545642	7
0	968	1572.65405756152	8
0	970	1585.55685583701	7
0	973	1585.671833918932	6
0	975	1586.779986140825	7
0	978	1590.473833309181	8
0	980	1590.51148563312	9
0	982	1591.778217682964	10
0	984	1600.839290818744	11
0	986	1605.152093490305	10
0	989	1607.583955075931	11
0	991	1609.152487741115	10
0	994	1610.101728362768	11
0	996	1613.987880748903	10
0	999	1615.791357081531	9
0	1002	1619.833797590261	10
0	1004	1626.186212812375	9
0	1007	1629.807178916487	8
0	1010	1630.169131427691	7
0	1013	1630.463860580263	8
0	1015	1633.186634486145	9
0	1017	1643.556042822574	8
0	1020	1645.726287664591	7
0	1023	1646.046257060838	6
0	1025	1650.361489191928	5
0	1027	1656.137522553345	4
0	1029	1656.169608589909	3
0	1031	1659.387779907863	4
0	1034	1663.407494741262	3
0	1036	1663.931013135705	4
0	1039	1666.21918091577	5
0	1042	1677.507376190125	6
0	1045	1684.374519932757	7
0	1048	1684.831302713579	6
0	1050	1688.40927038546	7
0	1053	1689.0471796902	6
0	1055	1692.939168719724	5
0	1057	1695.581997351747	6
0	1060	1708.115727559555	5
0	1062	1709.573354807072	4
0	1064	1713.691865958634	5
0	1067	1716.566006808591	4
0	1069	1717.011092333009	3
0	1071	1720.485632451149	4
0	1074	1724.076681852575	3
0	1076	1728.6349022913	4
0	1079	1730.654262234429	5
0	1082	1748.426317422222	6
0	1085	1759.603032488953	5
0	1087	1762.712516128266	4
0	1089	1772.844570677297	5
0	1092	1775.598120810893	4
0	1094	1775.750903694752	3
0	1096	1781.96143438556	4
0	1099	1786.702426605178	5
0	1102	1789.527572542464	4
0	1104	1791.473461759814	5
0	1107	1791.764158329064	4
0	1109	1797.373377771404	3
0	1111	1806.461140798671	4
0	1114	1812.284790600156	3
0	1116	1819.741972823141	2
0	1118	1837.205193464621	3
0	1121	1846.823102002593	4
0	1124	1847.81131518149	5
0	1127	1850.635476247683	6
0	1130	1855.348656428281	5
0	1132	1860.771722512503	4
0	1134	1862.290024716197	5
0	1137	1865.0211857796	4
0	1139	1875.603574552579	3
0	1141	1875.737402352565	4
0	1144	1879.983182325497	5
0	1147	1884.023332307534	6
0	1150	1886.210844327797	5
0	1152	1893.025588442284	6
0	1155	1895.548216394684	5
0	1157	1910.061583610828	6
0	1160	1912.360867419388	7
0	1163	1912.414524874646	6
0	1165	1919.32515403	7
0	1168	1919.418051838198	6
0	1170	1921.347601611387	5
0	1172	1922.331064769254	6
0	1175	1936.318736896528	5
0	1177	1939.40970836912	6
0	1180	1945.086912523899	5
0	1182	1949.102412040372	4
0	1184	1966.324671993529	5
0	1187	1968.673743920175	4
0	1189	1971.632614137905	3
0	1191	1972.056905131224	2
0	1193	1975.759735462686	3
0	1196	1982.86262674618	4
0	1199	1983.322869904084	3
0	1201	1983.665842768732	2
0	1203	1985.3464400435	1
0	1205	1993.197900896585	2
0	1208	2001.820579969676	3
0	1211	2002.883004695671	2
0	1213	2007.38697565688	3
0	1216	2011.930090123994	2
0	1218	2013.385897087272	1
0	1220	2013.481917827247	2
0	1223	2014.630511517695	1
0	1225	2014.931612186923	0
0	1227	2038.485664688513	1
0	1230	2040.582122621916	2
0	1233	2048.844498707079	3
0	1236	2051.887837968955	2
0	1238	2052.862985093166	3
0	1241	2053.153931303562	2
0	1243	2057.27415301424	3
0	1246	2064.989781538191	4
0	1249	2067.004175706602	3
0	1251	2070.901595736657	2
0	1253	2072.449004581444	3
0	1256	2077.601842248025	4
0	1259	2077.756880498809	5
0	1262	2082.837902223856	6
0	1265	2082.995048362898	5
0	1267	2085.709319950814	6
0	1270	2095.781668088925	7
0	1273	2095.949415624275	6
0	1275	2098.756193868125	5
0	1277	2101.085150416795	4
0	1279	2104.41622967817	5
0	1282	2107.133547538829	6
0	1285	2109.793781996875	5
0	1287	2109.874344536414	6
0	1290	2113.715245249663	5
0	1292	2113.743430029129	6
0	1295	2115.059447554717	5
0	1297	2120.2283848327	4
0	1299	2121.442430475297	5
0	1302	2131.515485999614	4
0	1304	2132.506264127591	5
0	1307	2136.985952688183	6
0	1310	2148.995749855943	5
0	1312	2153.845533527786	6
0	1315	2155.010125355369	7
0	1318	2155.207434497849	6
0	1320	2155.878502143328	7
0	1323	2156.631435856163	6
0	1325	2156.652133918621	5
0	1327	2158.632297340675	4
0	1329	2158.712295201291	5
0	1332	2159.487677237906	6
0	1335	2166.238785018633	7
0	1338	2169.735009128824	8
0	1340	2173.354840491652	7
0	1343	2176.884841755268	8
0	1345	2179.924878630358	7
0	1348	2183.305257641337	8
0	1350	2183.964237943936	7
0	1353	2186.778521769064	6
0	1355	2190.137895526481	7
0	1358	2190.411522873346	8
0	1360	2198.883597956396	9
0	1362	2215.024701584345	8
0	1365	2223.991928912536	7
0	1368	2225.777086115516	6
0	1370	2226.663881790656	7
0	1373	2228.105753981091	6
0	1375	2230.472602320217	5
0	1377	2234.65651434532	4
0	1379	2235.110678659934	5
0	1382	2238.207719397127	6
0	1385	2242.724603406093	7
0	1388	2244.725255365915	8
0	1390	2246.260416866699	7
0	1393	2249.788648792943	6
0	1395	2262.874327307455	7
0	1398	2264.092676309491	8
0	1400	2265.056154622081	7
0	1403	2267.758059381157	8
0	1405	2268.576624299978	9
0	1407	2270.924535914536	8
0	1410	2272.23317354144	7
0	1413	2273.156316711405	8
0	1415	2274.704687498336	7
0	1418	2278.759294387672	6
0	1420	2281.362859143185	5
0	1422	2285.245729678	4
0	1424	2288.895225563381	3
0	1426	2290.863256399779	2
0	1428	2293.201587181315	1
0	1430	2306.258794795488	2
0	1433	2306.333374767997	1
0	1435	2311.433242274994	0
0	1437	2324.058112053291	1
0	1440	2326.470639359078	2
0	1443	2328.293631657262	1
0	1445	2339.597819982492	2
0	1448	2345.758434858862	3
0	1451	2350.307322090456	2
0	1453	2355.494590821562	3
0	1456	2360.247178808153	4
0	1459	2361.092079957183	5
0	1462	2361.931134641986	6
0	1465	2370.479496586383	5
0	1467	2382.085391682652	6
0	1470	2383.551927642527	5
0	1472	2385.560156930202	6
0	1475	2395.581017129495	7
0	1478	2399.410868574691	6
0	1480	2400.648718071277	7
0	1483	2401.154137048589	6
0	1485	2411.860521911905	5
0	1487	2416.417378666929	4
0	1489	2418.373658127456	3
0	1491	2434.763958920593	2
0	1493	2438.071125052499	1
0	1495	2438.871014622283	0
0	1497	2454.771842230774	1
0	1500	2460.331733811542	0
0	1502	2469.489704511394	1
0	1505	2470.784665205092	2
0	1508	2472.477537886844	1
0	1510	2484.730638730282	0
0	1512	2489.586083523098	1
0	1515	2505.793354059924	2
0	1518	2506.099617363002	3
0	1521	2507.518221964163	4
0	1524	2513.197565381955	5
0	1527	2520.361993964336	4
0	1529	2520.845296773334	5
0	1532	2522.288309342169	4
0	1534	2522.305605588395	5
0	1537	2523.363075265313	6
0	1540	2523.695792784147	5
0	1542	2523.919199386626	4
0	1544	2529.964531198944	3
0	1546	2533.937121032273	2
0	1548	2535.441662910188	3
0	1551	2539.68210817316	2
0	1553	2550.513094002876	3
0	1556	2557.564376674399	2
0	1558	2566.528985967084	3
0	1561	2575.226852353947	2
0	1563	2579.702738777699	3
0	1566	2583.942761802793	4
0	1569	2589.91757574306	3
0	1571	2590.677809496649	4
0	1574	2591.8841375782	5
0	1577	2596.067097818907	6
0	1580	2596.337392103322	7
0	1583	2596.910795177825	8
0	1585	2598.119591052954	7
0	1588	2609.231286102464	6
0	1590	2618.772416208523	5
0	1592	2626.372347472347	4
0	1594	2629.309569888262	5
0	1597	2638.87307841852	6
0	1600	2640.27903206827	5
0	1602	2642.611258949799	6
0	1605	2647.44565152458	7
0	1608	2651.804508549737	8
0	1610	2652.149816581497	7
0	1613	2653.064732484727	6
0	1615	2656.589895489247	5
0	1617	2662.047182180236	6
0	1620	2662.4624825977	7
0	1623	2669.841802989687	6
0	1625	2671.385353118973	5
0	1627	2678.564664487347	6
0	1630	2682.203959245681	7
0	1633	2689.025595068641	6
0	1635	2690.848516008667	5
0	1637	2691.389390183736	4
0	1639	2711.883643980911	5
0	1642	2712.017786108848	6
0	1645	2712.767822229338	5
0	1647	2727.510404008778	6
0	1650	2729.609038482107	7
0	1653	2729.703304337454	8
0	1655	2732.173114906615	7
0	1658	2732.51281867224	6
0	1660	2733.101683283394	5
0	1662	2733.792809441408	4
0	1664	2741.285656993362	5
0	1667	2744.855679557514	6
0	1670	2767.932573574334	7
0	1673	2767.933803091596	6
0	1675	2767.969652671663	5
0	1677	2768.859911724892	4
0	1679	2769.631559047419	3
0	1681	2778.406960486516	4
0	1684	2789.497291302685	5
0	1687	2791.003651104438	6
0	1690	2794.320551445711	7
0	1693	2800.209600245604	8
0	1695	2805.222210015166	7
0	1698	2805.589284380273	8
0	1700	2806.036244803381	9
0	1702	2809.348076184762	10
0	1704	2809.592198180665	9
0	1707	2811.133189849569	10
0	1709	2812.109443745316	9
0	1712	2812.715825909242	10
0	1714	2812.86538967261	11
0	1716	2814.365541282232	12
0	1718	2815.30316759316	11
0	1721	2816.740967687923	10
0	1724	2822.205335270775	9
0	1727	2823.05546478416	8
0	1730	2823.149393544665	7
0	1733	2826.99284305908	8
0	1735	2831.973621810907	9
0	1737	2834.001667452054	10
0	1739	2835.57885843783	9
0	1742	2835.92278652326	8
0	1745	2841.335876462896	7
0	1748	2845.294869667209	6
0	1750	2849.97893325272	5
0	1752	2850.609915935596	6
0	1755	2851.490703831176	5
0	1757	2853.99917274645	6
0	1760	2855.174076403896	5
0	1762	2877.075527053704	6
0	1765	2878.806382500116	5
0	1767	2889.386540704818	4
0	1769	2890.634950008172	3
0	1771	2894.8635461874	2
0	1773	2898.133277954094	3
0	1776	2903.808139228305	2
0	1778	2905.630387695881	3
0	1781	2908.375883626848	2
0	1783	2915.380762122628	3
0	1786	2922.644474341224	4
0	1789	2922.903328778386	5
0	1792	2932.470877084274	4
0	1794	2935.149978588525	5
0	1797	2936.58963732094	6
0	1800	2939.676044113386	5
0	1802	2940.625262699813	4
0	1804	2941.131239206279	3
0	1806	2942.13523547724	4
0	1809	2949.907092742	5
0	1812	2950.320555988364	6
0	1815	2951.57294053445	5
0	1817	2953.918440584815	4
0	1819	2957.207945081809	5
0	1822	2964.287243030515	4
0	1824	2966.815712334145	5
0	1827	2968.989056896883	6
0	1830	2969.569848257992	5
0	1832	2973.17867333175	4
0	1834	2974.889541559973	3
0	1836	2986.620129503473	2
0	1838	2988.614602790409	1
0	1840	3006.215667565318	0
0	1842	3008.022120000831	1
0	1845	3020.083359883313	0
0	1847	3029.792906048135	1
0	1850	3032.280648487893	2
0	1853	3033.799326707506	1
0	1855	3039.89528614823	2
0	1858	3046.080258144997	1
0	1860	3048.988058110288	2
0	1863	3055.124695346867	3
0	1866	3057.586854023454	2
0	1868	3071.102071086787	3
0	1871	3078.233099702067	4
0	1874	3089.350516212271	5
0	1877	3097.62056341686	4
0	1879	3099.828799183164	5
0	1882	3111.908263763875	4
0	1884	3112.609125547919	3
0	1886	3119.10038118566	2
0	1888	3126.532273853994	3
0	1891	3129.523365821219	4
0	1894	3135.987206248413	5
0	1897	3140.050127229906	6
0	1900	3141.960150212689	7
0	1903	3143.844346800037	8
0	1905	3144.689637442945	7
0	1908	3145.85713570494	8
0	1910	3147.505392092804	9
0	1912	3148.210012132991	8
0	1915	3149.480266243194	9
0	1917	3155.743248396996	8
0	1920	3162.078141798913	7
0	1923	3168.574775086311	6
0	1925	3172.592870978385	7
0	1928	3173.043458765804	6
0	1930	3179.3367011817	7
0	1933	3185.330720046452	6
0	1935	3190.099480647571	7
0	1938	3194.912912539766	8
0	1940	3196.769477789139	7
0	1943	3197.331882050333	6
0	1945	3200.306869096856	7
0	1948	3201.340988576162	6
0	1950	3221.245773229898	5
0	1952	3225.988256192103	4
0	1954	3228.422698541149	5
0	1957	3228.98469087874	4
0	1959	3230.040674218179	3
0	1961	3230.486800652669	4
0	1964	3239.615903875544	5
0	1967	3241.96396509093	6
0	1970	3242.677199410892	7
0	1973	3243.155447114215	8
0	1975	3243.620026011143	9
0	1977	3246.77640366055	8
0	1980	3248.179206533595	9
0	1982	3250.297740615274	8
0	1985	3252.748380706007	7
0	1988	3253.532116323114	8
0	1990	3256.52147467827	9
0	1992	3273.022473614009	8
0	1995	3273.550835434522	9
0	1997	3274.695387748807	8
0	2000	3281.042869356524	7
0	2003	3283.085700263761	8
0	2005	3294.124147802028	7
0	2008	3303.225791943515	6
0	2010	3303.254905641364	5
0	2012	3304.282953137218	4
0	2014	3313.059257174363	5
0	2017	3313.578987265979	4
0	2019	3316.854587497027	5
0	2022	3317.175983669966	4
0	2024	3324.546104069597	5
0	2027	3326.129845952269	6
0	2030	3332.385651719274	7
0	2033	3332.585558545776	8
0	2035	3348.012439640815	9
0	2037	3348.569381009404	10
0	2039	3352.158010693464	9
0	2042	3359.464834803849	10
0	2044	3365.586556589112	9
0	2047	3366.112605669108	8
0	2050	3368.565142848174	9
0	2052	3369.347729469342	8
0	2055	3373.419146721669	7
0	2058	3373.774988703515	8
0	2060	3374.395019608358	7
0	2063	3378.412941248526	6
0	2065	3378.611638450197	7
0	2068	3387.654482817482	8
0	2070	3392.207111070164	7
0	2073	3392.992908381722	6
0	2075	3393.807441226253	7
0	2078	3401.279923887095	8
0	2080	3402.670955400337	7
0	2083	3406.295162678275	6
0	2085	3406.432747055017	5
0	2087	3411.949784481288	4
0	2089	3419.438644013368	5
0	2092	3429.472270174096	6
0	2095	3430.467477627281	5
0	2097	3437.817138031917	4
0	2099	3449.565119987849	3
0	2101	3459.888471519824	2
0	2103	3466.589490385086	3
0	2106	3471.660930540239	4
0	2109	3473.616858716582	5
0	2112	3475.035634372138	4
0	2114	3478.487522026479	5
0	2117	3486.131795361546	4
0	2119	3487.190757495394	5
0	2122	3496.452907548936	4
0	2124	3503.071779801663	3
0	2126	3504.172580019701	2
0	2128	3504.704746511401	1
0	2130	3506.14210286209	2
0	2133	3508.586942076604	3
0	2136	3509.767710339734	4
0	2139	3509.934648088615	5
0	2142	3511.544182867873	4
0	2144	3511.857908985851	3
0	2146	3512.017459380993	4
0	2149	3515.57240175655	3
0	2151	3523.380527025674	4
0	2154	3523.892293572772	3
0	2156	3540.198904527737	2
0	2158	3540.449033325473	3
0	2161	3541.319427153418	2
0	2163	3543.534534877835	3
0	2166	3557.195086673891	2
0	2168	3562.31728496927	3
0	2171	3566.186392069187	4
0	2174	3568.148311723696	3
0	2176	3574.4891926731	4
0	2179	3581.58920810097	5
0	2182	3584.72979232647	6
0	2185	3585.335108599027	5
0	2187	3597.858958342213	4
0	2189	3598.954939021142	5
0	2192	3603.819257704648	4
0	2194	3604.821880406486	5
0	2197	3612.574798706972	4
0	2199	3612.753914749664	5
0	2202	3612.754357564825	6
0	2205	3617.208667044657	5
0	2207	3624.507619453876	4
0	2209	3628.896848713146	3
0	2211	3629.240927491872	4
0	2214	3632.231033842404	5
0	2217	3634.787631081387	6
0	2220	3637.847374722421	5
0	2222	3639.220997713772	6
0	2225	3644.694447034836	5
0	2227	3652.018753248492	6
0	2230	3657.213647514616	5
0	2232	3669.344862695489	6
0	2235	3670.987644845375	7
0	2238	3680.100106050758	8
0	2240	3680.554839182833	7
0	2243	3682.593941582571	6
0	2245	3684.209934312158	5
0	2247	3686.253585510425	4
0	2249	3696.280860163513	3
0	2251	3704.525583407505	4
0	2254	3705.543166430808	3
0	2256	3709.397940309176	4
0	2259	3718.70284657658	5
0	2262	3721.541231327447	4
0	2264	3722.040034304901	3
0	2266	3723.986871214573	4
0	2269	3725.928619163947	5
0	2272	3736.984545474472	4
0	2274	3738.365922666417	5
0	2277	3744.290251063487	4
0	2279	3761.921764885803	5
0	2282	3762.888722580578	4
0	2284	3764.006885920815	5
0	2287	3774.50694986454	6
0	2290	3791.488923096076	7
0	2293	3793.162989899753	6
0	2295	3793.832534763969	7
0	2298	3796.84396957614	8
0	2300	3798.76335773163	9
0	2302	3808.409958444935	8
0	2305	3809.345355201726	7
0	2308	3812.870657519652	6
0	2310	3816.127500271896	5
0	2312	3816.315038679668	4
0	2314	3824.020122062955	5
0	2317	3826.348922146984	4
0	2319	3829.861943384868	5
0	2322	3834.967452229611	6
0	2325	3835.175434191156	7
0	2328	3840.026849856171	6
0	2330	3840.586518047029	5
0	2332	3845.122240414745	6
0	2335	3846.982440561823	7
0	2338	3848.317437691685	8
0	2340	3848.426597535177	7
0	2343	3852.740144656899	8
0	2345	3858.327547421071	7
0	2348	3863.227923602182	8
0	2350	3864.283663442262	7
0	2353	3864.909870608054	6
0	2355	3866.977335409997	7
0	2358	3872.075911590615	6
0	2360	3873.379967797329	5
0	2362	3875.290980502649	6
0	2365	3880.273614980768	7
0	2368	3882.208972138937	8
0	2370	3884.810700282747	9
0	2372	3884.989356441188	8
0	2375	3886.461564231587	9
0	2377	3888.119326678489	8
0	2380	3890.1297558996	7
0	2383	3893.53184947985	8
0	2385	3899.557346904676	7
0	2388	3906.716458865138	8
0	2390	3907.732938476102	7
0	2393	3909.442618459067	6
0	2395	3911.296004978222	5
0	2397	3922.668772475354	6
0	2400	3922.880693914355	5
0	2402	3933.39798289744	4
0	2404	3933.666212105769	5
0	2407	3934.666472825157	6
0	2410	3943.654156821541	7
0	2413	3949.482347563416	8
0	2415	3952.075940471308	9
0	2417	3953.20907674967	10
0	2419	3954.747168276407	11
0	2421	3956.007149539607	10
0	2424	3964.841669664305	11
0	2426	3966.846392238043	10
0	2429	3974.593664425755	11
0	2431	3974.980529462909	10
0	2434	3978.150623757768	9
0	2437	3978.627903891767	10
0	2439	3979.30311080099	9
0	2442	3983.471654740926	8
0	2445	3983.604199244417	9
0	2447	3987.408635029518	8
0	2450	3989.138176194172	7
0	2453	3989.381992916245	6
0	2455	3990.271225169584	7
0	2458	3990.911237356008	6
0	2460	3991.354848602665	5
0	2462	4002.184090841023	4
0	2464	4004.9533323931	5
0	2467	4006.573002502685	6
0	2470	4008.406957104341	7
0	2473	4008.612568342203	6
0	2475	4009.658763267416	7
0	2478	4011.100957664042	8
0	2480	4014.854018415025	7
0	2483	4016.457282390931	8
0	2485	4017.524007377112	9
0	2487	4021.039650501054	10
0	2489	4021.344866967879	9
0	2492	4023.021685733017	8
0	2495	4023.037769889713	7
0	2498	4026.755778921619	6
0	2500	4030.052826624632	5
0	2502	4031.283045332885	6
0	2505	4040.184034100583	5
0	2507	4053.848132920205	6
0	2510	4053.868102116851	5
0	2512	4054.095543252689	6
0	2515	4055.751110570735	5
0	2517	4065.69198146411	6
0	2520	4072.996956781009	5
0	2522	4076.686725579473	6
0	2525	4077.450867196641	5
0	2527	4087.734430344808	6
0	2530	4088.511771771744	7
0	2533	4091.167854536276	6
0	2535	4103.889944947358	5
0	2537	4107.235707457003	6
0	2540	4109.197292198141	7
0	2543	4109.894160864209	8
0	2545	4114.103128102728	7
0	2548	4115.190092424221	6
0	2550	4115.549639640599	5
0	2552	4120.960692593418	6
0	2555	4123.506352762413	5
0	2557	4125.637813368396	4
0	2559	4127.387826694755	5
0	2562	4137.91283676113	6
0	2565	4144.938557390876	7
0	2568	4145.312059340032	8
0	2570	4148.996822731119	7
0	2573	4155.160194008003	6
0	2575	4162.027973199602	5
0	2577	4162.447984464549	4
0	2579	4171.460030546615	5
0	2582	4173.337277340667	6
0	2585	4176.101434010337	7
0	2588	4177.475488377661	6
0	2590	4178.806671729092	7
0	2593	4179.804909437496	6
0	2595	4181.010895225398	7
0	2598	4181.756785698115	6
0	2600	4184.117418896952	5
0	2602	4190.058243058908	6
0	2605	4190.903740451745	7
0	2608	4191.424643370038	8
0	2610	4191.557172125411	9
0	2612	4192.389794291751	8
0	2615	4198.046300303235	9
0	2617	4208.693446396352	8
0	2620	4219.266768427399	9
0	2622	4219.341032622423	10
0	2624	4219.603483076806	9
0	2627	4222.341442447849	8
0	2630	4223.92964973007	7
0	2633	4228.208310656135	8
0	2635	4234.261928577832	7
0	2638	4234.448897376755	6
0	2640	4242.528227491984	7
0	2643	4248.663096883258	6
0	2645	4254.830857207796	7
0	2648	4258.112744356401	6
0	2650	4267.102914285124	5
0	2652	4267.504196903018	4
0	2654	4268.22387482759	3
0	2656	4271.005203431789	2
0	2658	4288.078625972301	3
0	2661	4290.72590502171	4
0	2664	4300.451428808578	5
0	2667	4303.874924380676	4
0	2669	4307.514473168235	5
0	2672	4309.118010728921	6
0	2675	4309.646746814468	7
0	2678	4314.656825716799	6
0	2680	4315.392718655333	7
0	2683	4315.923584798301	6
0	2685	4320.635676630987	5
0	2687	4320.711180651745	6
0	2690	4321.648834424854	5
0	2692	4324.428518290609	4
0	2694	4325.354471050589	3
0	2696	4327.659706503471	4
0	2699	4328.375334674054	3
0	2701	4332.520856437972	2
0	2703	4336.553073179116	1
0	2705	4348.19149231263	0
0	2707	4358.011896768173	1
0	2710	4370.403990201413	2
0	2713	4385.676899452366	1
0	2715	4387.136442782399	2
0	2718	4388.355019183843	1
0	2720	4392.715879030301	0
0	2722	4394.59733762455	1
0	2725	4397.899176558365	2
0	2728	4399.870503136067	3
0	2731	4422.372616384368	2
0	2733	4425.941870953544	3
0	2736	4430.8001052625	4
0	2739	4430.871251637319	3
0	2741	4432.908722165181	4
0	2744	4433.29065063275	3
0	2746	4433.503249448479	2
0	2748	4449.795832360243	3
0	2751	4454.771999090662	2
0	2753	4473.653437764024	3
0	2756	4479.075853780464	4
0	2759	4487.93015408253	3
0	2761	4495.099254985244	2
0	2763	4501.768975327468	3
0	2766	4511.826871292033	4
0	2769	4514.571694532117	3
0	2771	4519.821132264722	2
0	2773	4524.670541396576	3
0	2776	4525.072543815147	2
0	2778	4529.997281289672	3
0	2781	4534.080787452028	2
0	2783	4537.960990436605	3
0	2786	4546.82121729859	2
0	2788	4547.824034140851	3
0	2791	4547.892588890436	2
0	2793	4564.414125845651	3
0	2796	4565.713244427278	2
0	2798	4569.929602148435	3
0	2801	4572.703628578745	4
0	2804	4576.48311768871	3
0	2806	4587.595081722601	4
0	2809	4602.715895307371	5
0	2812	4604.444665040124	6
0	2815	4611.732077902594	5
0	2817	4612.140760452845	6
0	2820	4624.014700314046	7
0	2823	4624.121302272673	8
0	2825	4636.614543525763	7
0	2828	4637.2785347916	6
0	2830	4641.299527232059	5
0	2832	4647.918316399581	4
0	2834	4653.398560918792	5
0	2837	4654.739572584913	4
0	2839	4656.810847415084	5
0	2842	4663.663191865069	4
0	2844	4665.032267566215	3
0	2846	4671.009345229023	2
0	2848	4672.672838651911	3
0	2851	4673.955511407804	4
0	2854	4681.265565497004	3
0	2856	4681.959778581034	2
0	2858	4686.084062846404	3
0	2861	4705.079280576584	2
0	2863	4716.090939264263	1
0	2865	4718.147660085399	2
0	2868	4749.885556837198	1
0	2870	4751.762535495381	2
0	2873	4756.968914234254	3
0	2876	4765.157211204449	2
0	2878	4768.174319809938	3
0	2881	4773.677867637626	4
0	2884	4773.710318208195	5
0	2887	4777.167618928367	4
0	2889	4781.871814911833	5
0	2892	4783.683104364182	4
0	2894	4784.38379809634	5
0	2897	4788.062128638546	6
0	2900	4792.28986646496	7
0	2903	4793.467666763465	8
0	2905	4796.758922283611	7
0	2908	4797.539234176349	6
0	2910	4797.939728123393	7
0	2913	4802.165285367644	6
0	2915	4811.527796261946	5
0	2917	4811.752795161331	6
0	2920	4813.660285516228	5
0	2922	4814.528172407089	4
0	2924	4814.581567763435	5
0	2927	4816.265834069068	6
0	2930	4816.574620898268	5
0	2932	4820.367551210105	6
0	2935	4826.095913754054	7
0	2938	4826.551941763148	6
0	2940	4827.124555652264	7
0	2943	4829.156646679065	8
0	2945	4829.95043996675	7
0	2948	4831.592438826031	6
0	2950	4837.151465966708	5
0	2952	4839.654219116199	4
0	2954	4851.230925685076	3
0	2956	4860.737712819537	4
0	2959	4861.561459729291	5
0	2962	4865.730090297969	6
0	2965	4866.551918519406	5
0	2967	4869.049100663159	4
0	2969	4879.725444465567	3
0	2971	4881.58521302684	4
0	2974	4883.069782118291	3
0	2976	4888.322303449538	4
0	2979	4889.23630330025	3
0	2981	4892.46863515117	2
0	2983	4910.485257687798	1
0	2985	4917.193831489409	2
0	2988	4919.011217060819	1
0	2990	4920.561777873801	2
0	2993	4928.578568811296	1
0	2995	4946.481481609008	2
0	2998	4958.923836491844	3
0	3001	4959.689306565292	2
0	3003	4977.886937136756	3
0	3006	4982.126629770932	4
0	3009	4994.026067805649	5
0	3012	4997.063457576104	4
0	3014	4997.5872625209	5
0	3017	5000.82872557964	6
0	3020	5004.908652250435	7
0	3023	5005.58528818453	8
0	3025	5008.459639425539	9
0	3027	5012.643380654785	10
0	3029	5024.584437968324	11
0	3031	5025.746315141456	10
0	3034	5026.69860168141	11
0	3036	5034.045912555453	10
0	3039	5038.620451187699	9
0	3042	5041.066333654118	8
0	3045	5044.020177752732	7
0	3048	5044.230361789562	6
0	3050	5047.551176099977	7
0	3053	5048.688180191118	8
0	3055	5050.875965259885	7
0	3058	5051.8361994801	8
0	3060	5052.275458460509	9
0	3062	5058.012724882129	8
0	3065	5064.486486080792	7
0	3068	5065.29202176685	6
0	3070	5066.226684888715	5
0	3072	5068.170220830178	4
0	3074	5068.210477041663	3
0	3076	5076.66188474851	2
0	3078	5076.714336692566	3
0	3081	5087.059519562932	4
0	3084	5087.171892292871	5
0	3087	5087.263838294539	6
0	3090	5093.263281816438	5
0	3092	5093.363227768258	6
0	3095	5102.146241257975	5
0	3097	5105.140861032207	6
0	3100	5108.046798783421	7
0	3103	5109.31826422067	8
0	3105	5112.624075094628	7
0	3108	5126.473347936777	8
0	3110	5127.136246120125	9
0	3112	5129.44434780291	10
0	3114	5130.195344181171	11
0	3116	5136.228505001685	10
0	3119	5137.706185670221	9
0	3122	5137.799832437461	8
0	3125	5139.246374322007	9
0	3127	5139.585006340173	8
0	3130	5142.501263713167	7
0	3133	5147.577153585529	6
0	3135	5148.117243532921	5
0	3137	5148.165473697263	6
0	3140	5151.076681013558	5
0	3142	5160.058788346253	4
0	3144	5161.469199942657	5
0	3147	5162.836955805773	4
0	3149	5163.721392122425	5
0	3152	5168.248548455504	6
0	3155	5172.613810173643	7
0	3158	5172.971915593187	6
0	3160	5174.343936812266	5
0	3162	5179.93705487943	4
0	3164	5183.772762903748	5
0	3167	5189.161834632445	4
0	3169	5190.292909550918	5
0	3172	5192.586533091863	4
0	3174	5193.110339750974	3
0	3176	5204.202961862098	2
0	3178	5204.449868136597	3
0	3181	5215.852411440628	2
0	3183	5218.458317142403	1
0	3185	5220.210328661336	2
0	3188	5220.41289800346	1
0	3190	5224.022157322119	2
0	3193	5234.409722406957	3
0	3196	5235.221995078489	4
0	3199	5236.691983371904	3
0	3201	5237.743275308216	4
0	3204	5240.1104902942	5
0	3207	5241.238233369521	6
0	3210	5244.602320728507	5
0	3212	5248.408867009685	6
0	3215	5248.86459926942	7
0	3218	5254.041996901765	8
0	3220	5256.725806806234	7
0	3223	5256.913687448778	8
0	3225	5259.054361119723	7
0	3228	5261.027756856656	6
0	3230	5262.268110424666	7
0	3233	5264.245465251094	6
0	3235	5264.699882898497	7
0	3238	5264.940152831522	6
0	3240	5269.607395615234	7
0	3243	5274.479911257823	8
0	3245	5278.403469593578	7
0	3248	5278.466424428528	6
0	3250	5280.428576792033	7
0	3253	5287.055256646079	6
0	3255	5288.213883926912	5
0	3257	5289.626507894031	6
0	3260	5291.28310983288	5
0	3262	5294.293898062313	6
0	3265	5295.54513248997	5
0	3267	5298.562701074728	4
0	3269	5300.355294136538	3
0	3271	5303.809868072993	4
0	3274	5319.128606134134	5
0	3277	5321.795832841138	6
0	3280	5326.341196711077	7
0	3283	5327.197003198318	6
0	3285	5328.590221973328	5
0	3287	5330.164540611166	6
0	3290	5333.187841635061	5
0	3292	5344.194257771354	6
0	3295	5345.793102074719	7
0	3298	5347.53384408962	6
0	3300	5349.442285615225	5
0	3302	5350.439154490699	4
0	3304	5350.539992640093	3
0	3306	5351.489166599717	4
0	3309	5358.72801580137	3
0	3311	5363.919130615975	4
0	3314	5364.641828568628	5
0	3317	5365.1100517602	6
0	3320	5367.090269061337	5
0	3322	5368.809738327819	4
0	3324	5370.170871889505	3
0	3326	5373.741467028197	4
0	3329	5374.685505289928	3
0	3331	5383.293573992959	4
0	3334	5385.1449417686	5
0	3337	5397.210663621616	6
0	3340	5403.046255487885	5
0	3342	5407.186142221613	4
0	3344	5412.243611095296	5
0	3347	5413.146952107977	4
0	3349	5424.262913444982	5
0	3352	5433.412438409676	6
0	3355	5435.815039051962	7
0	3358	5437.386734139137	8
0	3360	5439.124470328568	7
0	3363	5441.131585765016	8
0	3365	5441.710938645933	9
0	3367	5446.684745123078	8
0	3370	5447.467591540228	7
0	3373	5448.797023814172	8
0	3375	5448.874907088896	9
0	3377	5449.096379757719	8
0	3380	5450.054099206112	7
0	3383	5451.423577871928	8
0	3385	5455.780162515732	7
0	3388	5455.820714260037	6
0	3390	5466.45845212646	5
0	3392	5469.232249787463	6
0	3395	5472.939370007783	7
0	3398	5474.085394178837	8
0	3400	5475.024318953948	7
0	3403	5475.841139465988	8
0	3405	5480.979879487692	7
0	3408	5487.92483227578	8
0	3410	5489.919194129955	7
0	3413	5492.852186546053	8
0	3415	5512.133144076396	7
0	3418	5513.59177541632	8
0	3420	5513.956879812284	9
0	3422	5521.64275802995	8
0	3425	5521.965928625241	7
0	3428	5522.92322263027	6
0	3430	5524.004027687007	7
0	3433	5528.162638504054	6
0	3435	5536.871370479694	7
0	3438	5537.477921042968	6
0	3440	5538.810344658813	5
0	3442	5542.27097826892	6
0	3445	5542.911609116472	7
0	3448	5547.983066128404	8
0	3450	5549.810855787066	7
0	3453	5551.378218866754	6
0	3455	5553.835428841465	7
0	3458	5559.960864623791	6
0	3460	5570.980226444903	7
0	3463	5573.911836779564	8
0	3465	5579.273691792171	9
0	3467	5584.413208330786	8
0	3470	5586.167031726533	9
0	3472	5590.450266535281	10
0	3474	5594.313826475687	9
0	3477	5594.698702684726	8
0	3480	5598.441470153002	7
0	3483	5598.64034551742	6
0	3485	5599.848788016367	5
0	3487	5605.268743615737	4
0	3489	5608.669274806882	3
0	3491	5610.795610408303	2
0	3493	5616.088737172175	3
0	3496	5617.619105539363	4
0	3499	5625.917066292185	5
0	3502	5631.076334221513	6
0	3505	5631.364356859508	7
0	3508	5643.439835344555	6
0	3510	5643.611144211055	7
0	3513	5645.853595302682	6
0	3515	5648.113745825592	7
0	3518	5651.3024454719	6
0	3520	5654.616932715076	7
0	3523	5655.639048140683	6
0	3525	5658.614469398111	5
0	3527	5660.324006977483	6
0	3530	5661.717568260477	7
0	3533	5663.174590942329	6
0	3535	5666.503032989064	5
0	3537	5667.863594995416	6
0	3540	5669.105879679455	7
0	3543	5670.595206319363	6
0	3545	5676.447684024233	5
0	3547	5678.256242712405	6
0	3550	5683.706579140787	5
0	3552	5686.048851162298	4
0	3554	5686.642555552054	5
0	3557	5689.243922515962	6
0	3560	5695.442661551994	7
0	3563	5696.546287407429	8
0	3565	5699.698747983005	9
0	3567	5701.737444583195	8
0	3570	5703.688286645965	9
0	3572	5704.960382780361	10
0	3574	5712.494082579803	9
0	3577	5717.995792153267	8
0	3580	5719.076844756394	7
0	3583	5719.865252142938	6
0	3585	5730.023018696734	7
0	3588	5731.416608429399	8
0	3590	5733.074089887409	9
0	3592	5734.182784458794	10
0	3594	5738.625874418381	9
0	3597	5739.945457361904	8
0	3600	5750.343560725582	7
0	3603	5752.90706540481	6
0	3605	5752.928703899535	7
0	3608	5753.653827546002	6
0	3610	5756.516527384446	5
0	3612	5759.848208774969	6
0	3615	5765.602898756882	5
0	3617	5766.126904931702	6
0	3620	5766.901284710167	7
0	3623	5770.752716445946	6
0	3625	5771.785147470149	7
0	3628	5773.562235746843	6
0	3630	5791.097278914213	7
0	3633	5792.982386959865	6
0	3635	5798.09826464493	5
0	3637	5798.427241831622	4
0	3639	5808.196652437552	5
0	3642	5808.889588393127	6
0	3645	5813.798422071056	7
0	3648	5822.877349256915	6
0	3650	5826.68907806402	7
0	3653	5836.992773864627	8
0	3655	5849.380117926656	7
0	3658	5852.478441046175	6
0	3660	5853.765864052807	7
0	3663	5857.839483947737	8
0	3665	5858.624440128768	9
0	3667	5877.375397255156	10
0	3669	5877.642052442276	9
0	3672	5881.820668560422	10
0	3674	5885.358426169098	9
0	3677	5891.190778119998	10
0	3679	5896.318566482109	11
0	3681	5905.216743242918	10
0	3684	5905.940276752744	11
0	3686	5912.884036608888	12
0	3688	5915.256304096708	11
0	3691	5916.060684209052	12
0	3693	5920.700427717254	11
0	3696	5921.077127292795	10
0	3699	5926.137813574042	11
0	3701	5937.448080210357	12
0	3703	5937.667617013799	13
0	3705	5938.239183107234	12
0	3708	5938.661081217012	11
0	3711	5939.723817316278	10
0	3714	5943.507260843306	9
0	3717	5945.21113530013	8
0	3720	5945.753770318592	9
0	3722	5950.500218946118	8
0	3725	5956.269947103265	9
0	3727	5958.465655279294	10
0	3729	5970.1181369719	11
0	3731	5970.26096688633	10
0	3734	5971.452196578547	9
0	3737	5971.518097357645	10
0	3739	5971.59661284883	11
0	3741	5972.687050448272	10
0	3744	5979.652893244866	9
0	3747	5984.329061831176	10
0	3749	5987.277725348062	11
0	3751	5987.770701169663	10
0	3754	5997.915425717869	9
0	3757	6005.25996436558	8
0	3760	6012.863765162222	9
0	3762	6014.984509973477	10
0	3764	6019.886473532388	11
0	3766	6025.486678621311	12
0	3768	6025.563075725151	11
0	3771	6030.753199068615	10
0	3774	6032.638689842751	11
0	3776	6039.576002951966	10
0	3779	6046.874958234621	9
0	3782	6056.915098569616	8
0	3785	6057.223291625033	9
0	3787	6065.27667770592	8
0	3790	6070.058420651685	7
0	3793	6070.698599735519	6
0	3795	6072.757408185034	5
0	3797	6072.823106919807	6
0	3800	6073.618946071087	5
0	3802	6077.235978748566	4
0	3804	6079.351255431525	5
0	3807	6084.239715921809	6
0	3810	6085.060131065837	7
0	3813	6086.545073927722	6
0	3815	6093.387412129235	5
0	3817	6096.821641658728	4
0	3819	6105.257793989625	3
0	3821	6109.331671645017	4
0	3824	6114.201790460048	3
0	3826	6117.107758773513	4
0	3829	6123.967239594424	5
0	3832	6126.229290513849	4
0	3834	6136.010792627497	3
0	3836	6136.877282136168	2
0	3838	6138.934014293441	1
0	3840	6139.870755233176	2
0	3843	6151.257308588904	1
0	3845	6153.623309727484	2
0	3848	6154.995618746466	3
0	3851	6163.839158388432	2
0	3853	6167.157458995066	1
0	3855	6174.157057061581	2
0	3858	6213.225048984343	3
0	3861	6215.780670580959	2
0	3863	6226.746928622411	3
0	3866	6227.457587683647	4
0	3869	6228.846840189314	5
0	3872	6229.640612401185	6
0	3875	6231.985179109482	5
0	3877	6237.57084844726	6
0	3880	6237.796327348045	5
0	3882	6245.603257838286	6
0	3885	6249.669013470708	7
0	3888	6251.881608939775	6
0	3890	6268.285901722214	5
0	3892	6268.704418794919	4
0	3894	6273.523250729318	5
0	3897	6274.016313098882	4
0	3899	6274.041376271636	5
0	3902	6274.748989419073	4
0	3904	6283.051516125554	3
0	3906	6296.126211917102	4
0	3909	6300.539840817825	5
0	3912	6305.284493596426	6
0	3915	6307.679120655773	7
0	3918	6314.971251485808	6
0	3920	6318.085820075452	7
0	3923	6319.205588951562	6
0	3925	6319.399288983463	5
0	3927	6322.332454742873	4
0	3929	6325.677852139712	3
0	3931	6328.34691785913	2
0	3933	6333.211653310903	3
0	3936	6334.535119712371	2
0	3938	6342.321534981995	1
0	3940	6344.057401421703	2
0	3943	6344.328376263642	3
0	3946	6347.262017493995	4
0	3949	6348.040025866764	3
0	3951	6360.225546753855	2
0	3953	6372.812112475454	3
0	3956	6373.832701065831	4
0	3959	6377.345316950533	5
0	3962	6380.057609465173	4
0	3964	6380.058104947881	3
0	3966	6382.039467403973	4
0	3969	6385.56870588981	5
0	3972	6389.546380180551	6
0	3975	6389.678086452429	7
0	3978	6393.01974331763	6
0	3980	6395.749804646418	7
0	3983	6397.388622783591	8
0	3985	6405.311647990814	7
0	3988	6412.321746545037	8
0	3990	6415.225704113617	7
0	3993	6416.425162479669	8
0	3995	6418.173665960843	7
0	3998	6421.537094314164	6
0	4000	6422.572863098797	7
0	4003	6426.893807924291	6
0	4005	6437.468578128182	5
0	4007	6443.766369196638	6
0	4010	6447.536488841292	5
0	4012	6452.88860021199	6
0	4015	6453.728062190617	7
0	4018	6454.202880055014	6
0	4020	6455.691986335437	5
0	4022	6461.244078077522	6
0	4025	6471.770097093199	5
0	4027	6483.248824207651	4
0	4029	6484.491434906767	5
0	4032	6485.320801599903	6
0	4035	6486.951739142981	5
0	4037	6487.750508296496	4
0	4039	6490.173781182456	3
0	4041	6501.611155098079	4
0	4044	6502.3834853303	5
0	4047	6507.226955583422	6
0	4050	6507.687698917958	7
0	4053	6510.340453708451	6
0	4055	6510.674624626367	5
0	4057	6510.686563513121	4
0	4059	6510.85222372112	5
0	4062	6511.576283482306	6
0	4065	6513.695762983405	7
0	4068	6515.861558109303	8
0	4070	6517.699694476817	7
0	4073	6520.225344303752	6
0	4075	6521.099095801272	5
0	4077	6523.486538415431	6
0	4080	6524.004596673231	5
0	4082	6538.1228756623	6
0	4085	6538.391947029661	7
0	4088	6539.038851976057	6
0	4090	6543.419016947079	5
0	4092	6544.303307189174	6
0	4095	6544.429140179374	7
0	4098	6547.910749358192	6
0	4100	6548.920583595718	5
0	4102	6550.186299360882	6
0	4105	6554.666366347528	7
0	4108	6556.323180096538	6
0	4110	6556.542128653517	5
0	4112	6560.51082544506	4
0	4114	6561.115788766674	3
0	4116	6563.061103674944	4
0	4119	6563.625119261828	5
0	4122	6569.917591996961	6
0	4125	6572.239779317947	7
0	4128	6572.503811198398	8
0	4130	6574.503417731596	9
0	4132	6581.446312690696	10
0	4134	6583.254785079446	9
0	4137	6583.781881264526	10
0	4139	6590.367879565182	9
0	4142	6595.577259062795	10
0	4144	6596.701064798435	11
0	4146	6596.777980006948	10
0	4149	6600.47680950061	11
0	4151	6600.573683461103	12
0	4153	6605.976530422483	13
0	4155	6606.958250481019	14
0	4157	6612.143552677106	13
0	4160	6613.547609270993	12
0	4163	6617.652162405402	11
0	4166	6620.298479569714	10
0	4169	6628.035701774529	9
0	4172	6630.648443375841	8
0	4175	6638.938758294779	9
0	4177	6641.388301251044	8
0	4180	6642.696927687704	7
0	4183	6643.5995589451	6
0	4185	6646.647499865093	7
0	4188	6647.101276770938	6
0	4190	6648.892107274511	7
0	4193	6655.084552121508	6
0	4195	6678.168604222205	7
0	4198	6681.919974840388	8
0	4200	6682.090007289813	7
0	4203	6684.109590825443	6
0	4205	6685.355198279744	5
0	4207	6688.341159576776	4
0	4209	6696.13477427302	3
0	4211	6700.141536960622	2
0	4213	6708.300345268998	1
0	4215	6719.042214807986	2
0	4218	6719.41609402187	3
0	4221	6720.156204583388	2
0	4223	6723.624340387951	3
0	4226	6726.593634154359	4
0	4229	6728.01664821721	5
0	4232	6729.355848804312	4
0	4234	6731.34304592606	3
0	4236	6742.264125616342	4
0	4239	6750.409866246798	5
0	4242	6756.044844345541	4
0	4244	6763.095582644912	3
0	4246	6763.571333663393	4
0	4249	6766.806805781706	3
0	4251	6768.383167892758	2
0	4253	6768.962881217143	3
0	4256	6769.204105074227	2
0	4258	6777.136627996419	3
0	4261	6778.263692010796	2
0	4263	6784.497550318844	1
0	4265	6786.878007844679	0
0	4267	6813.519218811298	1
0	4270	6817.191442231197	2
0	4273	6817.731715486214	3
0	4276	6820.732211031164	4
0	4279	6832.963721996859	5
0	4282	6840.82339935671	4
0	4284	6845.913010528216	5
0	4287	6848.634908285124	6
0	4290	6849.219321542361	7
0	4293	6851.429763085781	8
0	4295	6852.54817372242	7
0	4298	6860.635063829217	8
0	4300	6869.324690318475	9
0	4302	6873.158391874342	10
0	4304	6873.308081023728	9
0	4307	6873.428715674199	8
0	4310	6875.417965570009	9
0	4312	6883.457432042486	10
0	4314	6892.226972530561	11
0	4316	6897.227870293375	10
0	4319	6900.877919130448	9
0	4322	6908.64182319296	8
0	4325	6913.152099989938	9
0	4327	6918.9791205742	10
0	4329	6920.994390269806	9
0	4332	6923.236934367369	8
0	4335	6924.60260747023	7
0	4338	6934.340284463689	6
0	4340	6934.369029139546	7
0	4343	6938.783446112652	8
0	4345	6940.994836912998	7
0	4348	6944.291557217005	8
0	4350	6945.337555169018	7
0	4353	6950.763394778067	8
0	4355	6954.961874006296	7
0	4358	6955.230009092186	8
0	4360	6957.936778041775	9
0	4362	6971.769735143236	10
0	4364	6981.578792841105	11
0	4366	6988.252174544848	10
0	4369	6989.762784860508	9
0	4372	6991.268380481393	8
0	4375	6992.301000536942	9
0	4377	6996.588190899658	10
0	4379	7001.329450243151	11
0	4381	7001.469174394399	10
0	4384	7002.995028315522	9
0	4387	7004.90656946393	10
0	4389	7008.365614849831	9
0	4392	7013.561131305226	8
0	4395	7032.179594682375	7
0	4398	7032.671730108214	8
0	4400	7039.36076301858	7
0	4403	7039.777496673233	6
0	4405	7046.784429245723	7
0	4408	7050.394339633649	8
0	4410	7050.734957862842	7
0	4413	7052.108331112187	6
0	4415	7059.15436157325	5
0	4417	7071.112948797627	6
0	4420	7075.166734508823	7
0	4423	7075.287635498523	6
0	4425	7075.543528677267	7
0	4428	7075.604383550011	6
0	4430	7078.784565853573	5
0	4432	7081.676920635605	4
0	4434	7084.32722122949	3
0	4436	7086.279686606728	4
0	4439	7088.397944793436	5
0	4442	7088.721753431945	4
0	4444	7093.167319924611	5
0	4447	7096.59538075805	6
0	4450	7115.078228892161	5
0	4452	7118.748536620754	6
0	4455	7132.246282930814	7
0	4458	7134.625271154077	8
0	4460	7148.280658349963	7
0	4463	7160.829231391404	6
0	4465	7162.110749359227	5
0	4467	7168.489397524733	6
0	4470	7172.336423319157	7
0	4473	7178.628700398859	6
0	4475	7182.327466153017	5
0	4477	7184.946897254701	4
0	4479	7187.492092018105	3
0	4481	7200.119268966378	4
0	4484	7203.35807900313	3
0	4486	7207.075590982942	2
0	4488	7209.675188514442	3
0	4491	7216.541377668335	2
0	4493	7218.799524205591	1
0	4495	7228.501866659027	2
0	4498	7246.691523992528	3
0	4501	7247.014118863252	2
0	4503	7249.505663075967	3
0	4506	7250.537971101441	4
0	4509	7255.003581308932	3
0	4511	7266.713965448755	2
0	4513	7289.175733085195	3
0	4516	7289.504924920691	2
0	4518	7291.387514817542	3
0	4521	7293.682787580611	4
0	4524	7295.75568562767	5
0	4527	7296.651241956821	6
0	4530	7302.030305173124	7
0	4533	7322.263622376058	6
0	4535	7326.075362858411	5
0	4537	7326.150051350612	6
0	4540	7336.805545929238	5
0	4542	7343.919764816211	6
0	4545	7346.04629720839	7
0	4548	7349.5929723764	8
0	4550	7351.700400973385	7
0	4553	7358.337168700361	6
0	4555	7358.95645821651	7
0	4558	7362.848611334576	8
0	4560	7363.329638287616	9
0	4562	7375.637106085934	8
0	4565	7380.860185740903	7
0	4568	7383.214686962392	8
0	4570	7385.884952105507	7
0	4573	7393.71039161107	8
0	4575	7394.677042781171	9
0	4577	7396.12842212198	8
0	4580	7396.560718944624	7
0	4583	7397.38427195758	6
0	4585	7404.179553899226	5
0	4587	7411.754661937499	6
0	4590	7414.967657801067	5
0	4592	7419.733053330833	6
0	4595	7422.27748969236	7
0	4598	7423.417513257564	8
0	4600	7424.821716171248	7
0	4603	7427.229639825345	8
0	4605	7430.980005358458	9
0	4607	7434.731030603481	10
0	4609	7436.890050008725	9
0	4612	7437.868320920462	10
0	4614	7438.66489095239	9
0	4617	7445.014984910476	8
0	4620	7447.705319527355	7
0	4623	7448.919993559247	8
0	4625	7458.038356812563	9
0	4627	7459.982496495513	8
0	4630	7460.210803146018	9
0	4632	7472.909660983558	10
0	4634	7474.418178777567	11
0	4636	7479.783600095209	10
0	4639	7480.026542852175	11
0	4641	7484.798942187191	12
0	4643	7487.609512439529	13
0	4645	7490.514143161002	14
0	4647	7491.804371346152	13
0	4650	7501.716092791568	12
0	4653	7507.883950211836	13
0	4655	7510.341765722201	12
0	4658	7516.592698192169	11
0	4661	7519.911302954756	10
0	4664	7520.314745086014	9
0	4667	7522.50416035437	10
0	4669	7523.569957944825	9
0	4672	7525.973479197361	10
0	4674	7527.039254964187	9
0	4677	7528.145238928796	10
0	4679	7532.719416889885	9
0	4682	7538.872452725525	10
0	4684	7544.455953116175	11
0	4686	7548.173641881174	10
0	4689	7550.939898293632	11
0	4691	7557.552296282663	10
0	4694	7560.57641711688	9
0	4697	7563.275987841892	8
0	4700	7568.584344640275	7
0	4703	7573.79930107616	8
0	4705	7575.599641027056	9
0	4707	7583.640566215635	10
0	4709	7586.847732468454	9
0	4712	7587.879770381128	8
0	4715	7590.002343826105	9
0	4717	7606.159019851859	10
0	4719	7610.617418196269	9
0	4722	7612.024822561288	10
0	4724	7612.45233187796	9
0	4727	7616.744042136225	8
0	4730	7627.126220849874	7
0	4733	7634.560116401006	8
0	4735	7637.991411087179	9
0	4737	7641.173925604243	8
0	4740	7649.106279142766	9
0	4742	7649.305703908588	10
0	4744	7657.239207307588	9
0	4747	7658.496728948366	8
0	4750	7658.92616266626	9
0	4752	7660.215303296864	10
0	4754	7673.083378472787	9
0	4757	7678.226619443671	8
0	4760	7687.742855677547	9
0	4762	7688.389074446416	8
0	4765	7688.874000579409	9
0	4767	7693.90063602043	8
0	4770	7704.717494507411	7
0	4773	7705.824151923977	6
0	4775	7711.350237855908	5
0	4777	7715.103652177999	4
0	4779	7723.558567302928	3
0	4781	7730.355035963672	4
0	4784	7735.89964575604	3
0	4786	7736.571761428973	2
0	4788	7738.927106019115	1
0	4790	7740.20078677192	2
0	4793	7745.010023942992	3
0	4796	7754.88746295142	4
0	4799	7755.475513970771	5
0	4802	7759.609729553946	4
0	4804	7763.044327900804	5
0	4807	7765.815794520764	6
0	4810	7769.730857630931	5
0	4812	7770.667864754431	4
0	4814	7774.731460374492	5
0	4817	7776.053804473058	6
0	4820	7777.052325360075	5
0	4822	7780.800449019143	6
0	4825	7785.123670599958	7
0	4828	7794.651522227131	8
0	4830	7795.777483470559	9
0	4832	7797.552831628115	8
0	4835	7799.580200827691	9
0	4837	7805.015932890595	8
0	4840	7806.993309630066	9
0	4842	7807.436049950752	8
0	4845	7807.836478669362	9
0	4847	7811.697080390648	10
0	4849	7821.674379121499	9
0	4852	7827.677182109412	8
0	4855	7837.499609060381	9
0	4857	7841.382251499921	8
0	4860	7841.543198878907	7
0	4863	7841.918900889899	6
0	4865	7842.662066463757	5
0	4867	7847.023750968009	4
0	4869	7849.239255423184	3
0	4871	7852.974576067245	2
0	4873	7855.559423386432	3
0	4876	7856.160957859743	4
0	4879	7857.607212182082	3
0	4881	7883.645944999565	4
0	4884	7883.80185934318	5
0	4887	7889.941128509429	4
0	4889	7890.134732100007	5
0	4892	7890.553209265107	4
0	4894	7892.796469783118	3
0	4896	7898.728216800249	2
0	4898	7921.262012823268	3
0	4901	7923.83273524622	4
0	4904	7925.11857557076	5
0	4907	7932.294999683605	6
0	4910	7934.689823707136	7
0	4913	7945.5958095393	6
0	4915	7950.393725328089	5
0	4917	7952.855504566309	6
0	4920	7954.797468065186	7
0	4923	7956.927958960032	6
0	4925	7958.638911692625	5
0	4927	7958.974358500473	6
0	4930	7959.922027588067	5
0	4932	7961.887450747136	4
0	4934	7965.912694651118	5
0	4937	7966.166113381285	4
0	4939	7972.337788826488	5
0	4942	7974.789368256218	4
0	4944	7984.476341292133	3
0	4946	7996.846506688754	2
0	4948	8002.093055313683	3
0	4951	8004.628874352768	4
0	4954	8007.179602740071	5
0	4957	8012.041880853004	6
0	4960	8024.389845556166	5
0	4962	8040.114389261034	6
0	4965	8044.223874167147	7
0	4968	8044.430498522554	8
0	4970	8046.206852582221	7
0	4973	8046.715049886579	8
0	4975	8063.270981305654	7
0	4978	8064.232223603044	8
0	4980	8069.871818174049	9
0	4982	8077.993521676337	8
0	4985	8079.736527991786	9
0	4987	8082.709454030409	10
0	4989	8085.312787767707	11
0	4991	8088.339184964012	10
0	4994	8089.047702516213	11
0	4996	8091.666790127878	10
0	4999	8093.808967072205	9
0	5002	8095.328698133434	8
0	5005	8104.237742393113	7
0	5008	8105.643778222762	6
0	5010	8107.067645476783	7
0	5013	8109.541343520684	6
0	5015	8113.022671567965	7
0	5018	8113.237716524046	8
0	5020	8114.515052632731	7
0	5023	8114.691365049072	6
0	5025	8117.680943209833	5
0	5027	8119.577867566282	4
0	5029	8121.865483941422	3
0	5031	8122.164717995233	2
0	5033	8122.198578483746	1
0	5035	8124.347134714983	2
0	5038	8132.207361456762	3
0	5041	8135.453172207697	4
0	5044	8138.651534387516	5
0	5047	8139.756921158244	4
0	5049	8147.339389420144	3
0	5051	8159.284439433804	4
0	5054	8160.000732712629	3
0	5056	8169.574773767995	2
0	5058	8186.603838653257	3
0	5061	8201.996436697483	2
0	5063	8202.466339295447	3
0	5066	8203.943266278699	4
0	5069	8204.342591098109	5
0	5072	8209.766265479146	4
0	5074	8212.132353243306	3
0	5076	8222.882799598633	4
0	5079	8225.223204408163	5
0	5082	8227.492813271671	4
0	5084	8228.426256659838	5
0	5087	8232.217172840981	4
0	5089	8233.152938423075	5
0	5092	8239.422451633024	4
0	5094	8250.755572986628	5
0	5097	8251.639699999444	6
0	5100	8254.393107987725	5
0	5102	8257.386626681134	6
0	5105	8260.814154911461	7
0	5108	8266.531228410485	8
0	5110	8271.292701726335	7
0	5113	8273.638751652706	6
0	5115	8274.555689972611	5
0	5117	8277.310819000012	6
0	5120	8277.677731706042	5
0	5122	8281.190779502251	4
0	5124	8281.223686284973	5
0	5127	8281.691861583746	4
0	5129	8284.908787171017	3
0	5131	8290.200113755687	2
0	5133	8290.352032959	3
0	5136	8291.616696894207	2
0	5138	8292.472929123628	1
0	5140	8296.393727501084	2
0	5143	8304.184756232923	3
0	5146	8310.157931346546	2
0	5148	8317.721469396736	1
0	5150	8327.345697169091	2
0	5153	8337.263281814023	3
0	5156	8340.031703832711	2
0	5158	8354.852194259837	1
0	5160	8355.132400622813	2
0	5163	8356.966937995906	3
0	5166	8364.810129825329	2
0	5168	8366.010595582421	3
0	5171	8369.35532885397	4
0	5174	8373.691904943977	3
0	5176	8377.506954302581	4
0	5179	8384.409250571873	3
0	5181	8386.529037771167	4
0	5184	8392.888020459692	5
0	5187	8397.581591467985	4
0	5189	8404.384178602085	3
0	5191	8409.799274976866	4
0	5194	8411.332403019335	3
0	5196	8412.346419105313	4
0	5199	8414.35577073866	3
0	5201	8418.622872680657	4
0	5204	8419.906745539522	5
0	5207	8422.564830528152	6
0	5210	8429.348586279258	5
0	5212	8438.08521620718	6
0	5215	8438.330830391269	7
0	5218	8442.729130619077	6
0	5220	8446.394938715144	7
0	5223	8452.839173385884	6
0	5225	8455.999559407677	5
0	5227	8456.30723077417	6
0	5230	8459.156557026679	7
0	5233	8459.219879798728	8
0	5235	8464.152624506913	9
0	5237	8467.883000718413	10
0	5239	8468.081666380385	11
0	5241	8474.130996362707	12
0	5243	8480.241159373547	11
0	5246	8480.663737873491	12
0	5248	8491.841453112716	11
0	5251	8493.160001402714	10
0	5254	8495.371373342526	9
0	5257	8499.301345461165	8
0	5260	8501.083549821871	9
0	5262	8504.668253568874	10
0	5264	8505.418296669753	11
0	5266	8507.901445210227	10
0	5269	8510.605700695408	9
0	5272	8511.006944718386	10
0	5274	8513.441103988788	9
0	5277	8514.085182843814	8
0	5280	8515.173175637351	9
0	5282	8516.50754170233	10
0	5284	8516.704450854898	11
0	5286	8519.679864514808	10
0	5289	8521.138598642203	11
0	5291	8524.494433229956	12
0	5293	8537.480830193896	11
0	5296	8538.507848659433	10
0	5299	8539.128310792365	9
0	5302	8542.826340204998	8
0	5305	8543.424755340735	9
0	5307	8550.182450353695	8
0	5310	8551.212535689903	9
0	5312	8551.280919839063	10
0	5314	8552.898442819797	9
0	5317	8553.898602889674	10
0	5319	8576.230468345122	9
0	5322	8581.653753599886	10
0	5324	8583.537000531923	11
0	5326	8587.255059730784	10
0	5329	8592.929561626278	11
0	5331	8593.913262161381	12
0	5333	8594.750960348815	13
0	5335	8597.730404044482	12
0	5338	8598.781219908227	11
0	5341	8601.636678008926	12
0	5343	8604.374075541854	13
0	5345	8606.451249894101	12
0	5348	8613.713490920617	11
0	5351	8613.880708824154	12
0	5353	8620.076843127634	13
0	5355	8622.094200521072	12
0	5358	8628.993731151627	13
0	5360	8639.296853064508	14
0	5362	8645.605339436664	13
0	5365	8653.767377456682	12
0	5368	8656.084987514427	11
0	5371	8661.306797752245	10
0	5374	8663.08251978036	11
0	5376	8667.022050791376	12
0	5378	8667.043705788005	13
0	5380	8668.326162689916	12
0	5383	8668.855098681602	11
0	5386	8669.104384718735	12
0	5388	8674.413418996581	11
0	5391	8677.23959506411	10
0	5394	8677.439140437303	11
0	5396	8682.002942050741	10
0	5399	8682.292839711257	11
0	5401	8686.627034746666	10
0	5404	8689.631014086553	11
0	5406	8689.798535041042	10
0	5409	8691.830154512618	9
0	5412	8696.022141656277	8
0	5415	8697.06172989191	7
0	5418	8709.099549721288	6
0	5420	8718.259027893251	7
0	5423	8720.239334462206	6
0	5425	8721.31388489019	5
0	5427	8725.367257591855	6
0	5430	8727.036435014692	5
0	5432	8736.305408116518	4
0	5434	8739.724642503832	5
0	5437	8742.185382334696	4
0	5439	8742.714705547129	3
0	5441	8745.648995725419	2
0	5443	8763.397800982583	1
0	5445	8766.049833145908	2
0	5448	8781.474652270495	1
0	5450	8785.750987301155	2
0	5453	8785.887112290991	3
0	5456	8786.188925350175	2
0	5458	8790.633938600577	1
0	5460	8794.690860534813	2
0	5463	8804.229386728566	3
0	5466	8808.877455972242	4
0	5469	8819.247078569534	3
0	5471	8822.319715172893	4
0	5474	8824.301180634614	3
0	5476	8826.168284725273	2
0	5478	8831.563513002866	3
0	5481	8837.267164835892	4
0	5484	8844.517210474697	3
0	5486	8845.633767178182	4
0	5489	8848.885070112162	5
0	5492	8849.121324601474	6
0	5495	8851.489583078117	5
0	5497	8855.584235109365	4
0	5499	8861.638577007054	5
0	5502	8865.663717366157	4
0	5504	8873.749405307726	3
0	5506	8881.797686557827	4
0	5509	8882.616100805903	5
0	5512	8884.127829578541	4
0	5514	8888.871176190737	5
0	5517	8893.538857569177	6
0	5520	8902.0096094784	5
0	5522	8905.221150716629	4
0	5524	8911.482456381464	3
0	5526	8931.350019144066	4
0	5529	8937.220978880246	5
0	5532	8941.085403074352	6
0	5535	8945.113342008364	5
0	5537	8946.418547409664	4
0	5539	8950.557624965128	5
0	5542	8956.284251746989	4
0	5544	8956.573393292316	3
0	5546	8963.704450846775	4
0	5549	8964.466726709755	5
0	5552	8965.196175941731	4
0	5554	8969.411145726875	5
0	5557	8971.478819716616	6
0	5560	8978.692269290783	5
0	5562	8985.506404662828	6
0	5565	8989.731556588602	7
0	5568	8995.928466479451	8
0	5570	8997.500210211186	7
0	5573	8997.940488219042	6
0	5575	9003.738802663199	7
0	5578	9018.289245932358	6
0	5580	9018.89529928321	5
0	5582	9021.200513777483	6
0	5585	9021.310534744271	5
0	5587	9026.547565106778	4
0	5589	9026.786437744526	3
0	5591	9030.322197436916	2
0	5593	9038.640677354729	3
0	5596	9055.609913009496	4
0	5599	9056.313336821763	3
0	5601	9056.537183319925	2
0	5603	9058.860876834968	1
0	5605	9063.325911103576	2
0	5608	9066.509498260767	3
0	5611	9067.65548789105	4
0	5614	9071.673395349476	3
0	5616	9071.80131067588	4
0	5619	9095.791864662193	3
0	5621	9103.332980152891	4
0	5624	9109.626445076569	5
0	5627	9110.133799682659	4
0	5629	9126.058864947478	5
0	5632	9127.301691059348	4
0	5634	9133.835256695316	5
0	5637	9138.228182197879	4
0	5639	9139.424085230887	5
0	5642	9142.811118909673	4
0	5644	9143.240067238442	5
0	5647	9163.684208971755	6
0	5650	9169.933559291655	7
0	5653	9175.336956484846	6
0	5655	9176.1698395223	7
0	5658	9177.200868690634	8
0	5660	9178.482262460007	7
0	5663	9187.308888299118	6
0	5665	9189.677650145206	5
0	5667	9193.792295251712	4
0	5669	9197.744329720252	5
0	5672	9203.527152147936	4
0	5674	9206.877253908419	5
0	5677	9210.658455680366	4
0	5679	9219.717872671169	3
0	5681	9221.048080462981	4
0	5684	9223.75560952552	5
0	5687	9223.965754100129	4
0	5689	9248.230827459921	3
0	5691	9251.363690560395	4
0	5694	9251.715108433408	5
0	5697	9255.786144994696	4
0	5699	9271.899248124247	5
0	5702	9272.886523896306	6
0	5705	9273.180116458556	7
0	5708	9273.600141031136	6
0	5710	9274.080356029585	7
0	5713	9275.617120638774	8
0	5715	9276.987104977534	7
0	5718	9278.214275478607	6
0	5720	9278.66120822727	7
0	5723	9282.604238374205	8
0	5725	9284.868817860984	9
0	5727	9286.995824435677	8
0	5730	9288.24874377206	7
0	5733	9306.41808583352	6
0	5735	9309.185070582055	7
0	5738	9311.502846544393	6
0	5740	9315.803677970883	7
0	5743	9315.963879933599	6
0	5745	9318.65740799227	7
0	5748	9320.557546240262	6
0	5750	9330.072063551327	5
0	5752	9333.046072979268	4
0	5754	9337.60329641629	5
0	5757	9339.002578497057	6
0	5760	9345.05275652316	5
0	5762	9345.94461964057	6
0	5765	9350.361058332849	5
0	5767	9350.418106767126	4
0	5769	9351.336599813506	3
0	5771	9360.982861766205	2
0	5773	9363.338482897644	3
0	5776	9370.627649362206	4
0	5779	9375.358071646762	5
0	5782	9376.219985475778	4
0	5784	9377.532998355356	5
0	5787	9378.832051175749	4
0	5789	9394.914110740267	3
0	5791	9396.609921101202	4
0	5794	9403.566843987899	5
0	5797	9404.963866359739	6
0	5800	9405.397075514187	5
0	5802	9406.225242782372	6
0	5805	9407.131886291665	5
0	5807	9407.985503664884	4
0	5809	9414.882057858244	5
0	5812	9414.903625802778	4
0	5814	9415.184376439157	3
0	5816	9418.153398092216	4
0	5819	9422.795714796082	5
0	5822	9426.225436251515	4
0	5824	9428.854308155882	3
0	5826	9430.653620271357	4
0	5829	9431.290181512102	5
0	5832	9434.296047018149	4
0	5834	9434.876815964996	5
0	5837	9444.330858369118	4
0	5839	9444.414833901655	5
0	5842	9456.563688165384	4
0	5844	9463.767245054923	5
0	5847	9466.04100300315	6
0	5850	9469.550048007944	5
0	5852	9473.17878322033	4
0	5854	9481.036877189913	3
0	5856	9482.903245870378	4
0	5859	9483.226618491604	5
0	5862	9486.093532266117	4
0	5864	9487.78210740257	5
0	5867	9488.276636591755	6
0	5870	9489.74691774287	5
0	5872	9494.108690362804	6
0	5875	9494.330118480372	5
0	5877	9494.612877916863	6
0	5880	9495.757691851659	5
0	5882	9499.762676363681	6
0	5885	9502.364522460249	5
0	5887	9503.725021281619	4
0	5889	9505.231548073495	3
0	5891	9518.827222549213	4
0	5894	9520.457505606882	5
0	5897	9531.230523915172	6
0	5900	9535.221402451904	5
0	5902	9535.794571819776	6
0	5905	9542.738257979795	5
0	5907	9548.850860098062	4
0	5909	9554.06172409513	5
0	5912	9555.723350384824	6
0	5915	9556.428259333271	5
0	5917	9558.080222536573	4
0	5919	9564.655498973284	5
0	5922	9568.828075818195	4
0	5924	9571.777021074066	3
0	5926	9574.703463763472	4
0	5929	9580.725620979783	5
0	5932	9584.713607957767	4
0	5934	9586.647638511103	5
0	5937	9588.651568367884	4
0	5939	9588.790409804072	3
0	5941	9589.552015746254	4
0	5944	9592.643969202603	5
0	5947	9596.28528525087	4
0	5949	9601.517142116834	3
0	5951	9610.300462330518	2
0	5953	9620.725723644974	1
0	5955	9642.211250152379	2
0	5958	9642.236085006848	3
0	5961	9645.833791950417	4
0	5964	9648.386304345975	3
0	5966	9653.1103575894	4
0	5969	9654.947837145651	3
0	5971	9658.19918522433	4
0	5974	9666.576723268262	5
0	5977	9667.656276540958	4
0	5979	9670.378398778545	5
0	5982	9670.420023841004	6
0	5985	9672.044011646457	5
0	5987	9673.024733636689	4
0	5989	9675.122762758333	3
0	5991	9678.549083332227	2
0	5993	9681.228361897117	1
0	5995	9701.529181623162	2
0	5998	9711.160972222356	1
0	6000	9729.641012206766	2
0	6003	9731.176675422375	3
0	6006	9739.898640114064	4
0	6009	9743.07847275345	5
0	6012	9745.853903818688	6
0	6015	9749.21219779017	5
0	6017	9754.978099618397	6
0	6020	9756.766892085075	7
0	6023	9757.289240850243	8
0	6025	9762.339163882878	7
0	6028	9767.310012200479	6
0	6030	9774.3364708685	5
0	6032	9774.544593614391	4
0	6034	9778.086626813005	5
0	6037	9785.563270143796	6
0	6040	9787.395480664429	5
0	6042	9788.523103581803	6
0	6045	9789.935517488086	5
0	6047	9793.718389396158	6
0	6050	9797.848017035653	7
0	6053	9800.520617700129	8
0	6055	9802.908528172254	7
0	6058	9804.231488982883	6
0	6060	9808.541116966755	7
0	6063	9808.642277657549	6
0	6065	9810.719926777593	7
0	6068	9813.600589500699	6
0	6070	9822.395743616051	5
0	6072	9828.425744629872	6
0	6075	9832.075592530146	5
0	6077	9834.206562530154	6
0	6080	9836.282319121343	5
0	6082	9838.740178208952	6
0	6085	9840.828222928452	5
0	6087	9842.410188630123	6
0	6090	9842.951749743645	5
0	6092	9847.54471653732	4
0	6094	9859.892339528242	3
0	6096	9863.483239797668	4
0	6099	9868.361337180533	5
0	6102	9868.933828489895	4
0	6104	9875.534823873217	5
0	6107	9878.828428496199	6
0	6110	9883.074917842569	5
0	6112	9883.35047074669	6
0	6115	9886.342088315422	5
0	6117	9888.240766375282	4
0	6119	9906.844091510888	3
0	6121	9910.77720334879	2
0	6123	9911.535681476525	3
0	6126	9912.682752635829	2
0	6128	9918.722900408019	3
0	6131	9919.868686579868	4
0	6134	9922.684239342022	3
0	6136	9923.370602228774	4
0	6139	9924.18512736459	5
0	6142	9928.767215260395	4
0	6144	9932.324540330608	3
0	6146	9932.745787281614	4
0	6149	9936.111128660816	5
0	6152	9943.041838203853	4
0	6154	9944.562656614264	5
0	6157	9944.728807484104	4
0	6159	9951.528871338793	3
0	6161	9951.715503719265	4
0	6164	9965.510638803012	5
0	6167	9972.626752125369	4
0	6169	9974.121762478353	5
0	6172	9974.566698986086	4
0	6174	9978.245342878412	5
0	6177	9978.330520055835	4
0	6179	9982.295454615069	5
0	6182	9982.601764997248	6
0	6185	9995.394174832267	5
0	6187	10000.813115844458	4
0	6189	10003.315902394632	3
0	6191	10012.724862806564	2
0	6193	10040.469512619637	3
0	6196	10064.12277576838	2
0	6198	10073.873061453458	3
0	6201	10077.342657216663	4
0	6204	10080.221238491406	3
0	6206	10082.006496935057	2
0	6208	10082.09838535025	3
0	6211	10083.428570563407	2
0	6213	10092.322402383579	3
0	6216	10093.291329995237	2
0	6218	10109.190157172086	1
0	6220	10114.520439356222	2
0	6223	10122.640111023181	3
0	6226	10122.887356795	2
0	6228	10124.585204176864	1
0	6230	10131.559045855744	2
0	6233	10134.370944740959	1
0	6235	10144.974523719677	2
0	6238	10147.456092705791	3
0	6241	10168.786860186983	2
0	6243	10172.860303974708	1
0	6245	10177.369280530108	2
0	6248	10184.011365704241	3
0	6251	10193.477359327242	2
0	6253	10201.654572134661	3
0	6256	10203.602820620247	2
0	6258	10226.814552556287	3
0	6261	10238.385013133532	4
0	6264	10239.348679275685	5
0	6267	10248.93389037844	6
0	6270	10251.476045109494	7
0	6273	10254.745786343367	8
0	6275	10255.430752696255	9
0	6277	10256.709150939729	10
0	6279	10263.561720740064	9
0	6282	10268.303725895534	10
0	6284	10268.821194736695	11
0	6286	10268.996613782213	12
0	6288	10270.786469531375	11
0	6291	10271.212151584837	12
0	6293	10272.393206650687	13
0	6295	10276.922243064252	14
0	6297	10278.204802253356	13
0	6300	10279.337883092165	14
0	6302	10285.242977032552	15
0	6304	10286.944136479188	14
0	6307	10292.144661946237	13
0	6310	10293.983396173279	12
0	6313	10294.629359054721	11
0	6316	10300.953808873656	10
0	6319	10301.631642285329	11
0	6321	10305.441415131974	10
0	6324	10307.151855628369	9
0	6327	10308.603904521978	8
0	6330	10312.489135110325	7
0	6333	10313.49702954961	8
0	6335	10315.078883693139	9
0	6337	10329.326337166426	8
0	6340	10340.581957071326	9
0	6342	10345.125058616281	10
0	6344	10345.827338909156	9
0	6347	10346.123403354366	10
0	6349	10346.595435504911	9
0	6352	10348.138480142634	8
0	6355	10349.269141650292	9
0	6357	10350.174528309429	10
0	6359	10357.179638694155	11
0	6361	10364.306469109285	12
0	6363	10373.452918187166	11
0	6366	10377.917191927218	10
0	6369	10383.596951221925	9
0	6372	10386.356173729107	10
0	6374	10386.457299916911	9
0	6377	10397.30060590011	10
0	6379	10406.564777828084	9
0	6382	10408.678630303147	8
0	6385	10409.208479904649	7
0	6388	10410.001304904202	6
0	6390	10412.442529525196	5
0	6392	10417.195647140199	4
0	6394	10418.13247215446	3
0	6396	10419.912797664627	4
0	6399	10420.276769739274	3
0	6401	10422.950259452713	2
0	6403	10423.252568777151	1
0	6405	10428.764517254553	0
0	6407	10434.991714578263	1
0	6410	10435.423210229607	2
0	6413	10438.160769155844	1
0	6415	10457.393225191403	2
0	6418	10464.648130049851	3
0	6421	10483.13933845991	2
0	6423	10497.447604391209	3
0	6426	10515.237866917211	4
0	6429	10519.321828218833	5
0	6432	10529.4232790529	4
0	6434	10531.46878140601	5
0	6437	10535.297393974569	6
0	6440	10537.198720943421	7
0	6443	10538.478274650247	8
0	6445	10542.868690086137	7
0	6448	10543.067459087159	6
0	6450	10545.498170632961	5
0	6452	10546.59035427278	4
0	6454	10548.505237642439	3
0	6456	10550.063443641844	4
0	6459	10551.867832851557	3
0	6461	10558.726717711155	2
0	6463	10559.303239910392	3
0	6466	10559.313197361648	2
0	6468	10560.979755796198	3
0	6471	10564.149658515365	2
0	6473	10569.534404263142	3
0	6476	10569.660613517217	2
0	6478	10587.856462022343	3
0	6481	10603.704104391331	4
0	6484	10603.775875490003	5
0	6487	10604.594423326583	6
0	6490	10605.35095721859	7
0	6493	10610.295923641748	6
0	6495	10610.860643970239	7
0	6498	10615.903926358787	6
0	6500	10616.221158958472	5
0	6502	10618.584130367811	6
0	6505	10623.01921196739	5
0	6507	10623.158625758635	4
0	6509	10625.544769650747	5
0	6512	10629.400603327231	6
0	6515	10631.612504800039	7
0	6518	10632.424894964687	8
0	6520	10633.906143392572	9
0	6522	10637.32864141944	8
0	6525	10641.836754242392	7
0	6528	10641.89547337581	6
0	6530	10644.717142852967	5
0	6532	10667.468292353548	6
0	6535	10668.302135445903	5
0	6537	10683.173278670004	6
0	6540	10691.362893352397	5
0	6542	10701.325031362993	6
0	6545	10701.807575553217	7
0	6548	10703.073378204959	6
0	6550	10703.140425993109	5
0	6552	10704.337472399955	6
0	6555	10709.124828099328	5
0	6557	10709.425876168949	6
0	6560	10714.553199554517	7
0	6563	10715.060260071419	6
0	6565	10715.53808319385	7
0	6568	10716.388479219163	6
0	6570	10720.765709271664	7
0	6573	10725.651742670585	8
0	6575	10731.33230543583	9
0	6577	10738.320634597744	8
0	6580	10741.197490692958	7
0	6583	10745.283597725348	6
0	6585	10749.606877241359	5
0	6587	10755.832174989531	4
0	6589	10762.61343159306	5
0	6592	10782.646079327021	4
0	6594	10789.96652361455	5
0	6597	10792.938640439344	4
0	6599	10794.375627201069	5
0	6602	10795.218142554685	6
0	6605	10810.784419226063	7
0	6608	10811.108082871348	8
0	6610	10812.106383050219	9
0	6612	10816.540851513196	8
0	6615	10817.395021456857	9
0	6617	10819.926440586359	10
0	6619	10819.98943848489	9
0	6622	10823.03838482094	8
0	6625	10824.830178735813	9
0	6627	10828.967514152379	10
0	6629	10829.468027637616	9
0	6632	10830.336061940083	8
0	6635	10831.113298898551	9
0	6637	10832.101828238399	8
0	6640	10835.197399506036	9
0	6642	10835.682793907435	10
0	6644	10837.392811859277	9
0	6647	10840.101414866261	8
0	6650	10844.585704400329	9
0	6652	10845.643397198958	10
0	6654	10849.024915503494	11
0	6656	10849.113020063615	10
0	6659	10853.331763818914	9
0	6662	10855.075447353489	8
0	6665	10859.83557499939	7
0	6668	10862.845498254371	6
0	6670	10863.828613619236	5
0	6672	10864.570519954107	6
0	6675	10871.948172641422	5
0	6677	10874.578109239377	6
0	6680	10878.660280421446	7
0	6683	10879.459210139592	6
0	6685	10886.815441925991	7
0	6688	10890.657776436458	8
0	6690	10894.343697837504	7
0	6693	10894.733204518227	8
0	6695	10894.910953734377	9
0	6697	10899.432646813153	10
0	6699	10900.450286293843	9
0	6702	10903.189511070181	10
0	6704	10910.815798519962	11
0	6706	10914.913558725536	10
0	6709	10916.809480711746	9
0	6712	10919.484184026309	10
0	6714	10920.065112491155	11
0	6716	10921.000060068813	10
0	6719	10927.919391735953	11
0	6721	10941.648361221786	10
0	6724	10941.745466719694	11
0	6726	10943.780891287944	10
0	6729	10947.653250773238	9
0	6732	10957.02096262027	8
0	6735	10961.37191345172	9
0	6737	10965.581358911255	8
0	6740	10969.849072997395	9
0	6742	10973.055982504841	8
0	6745	10978.761990889126	9
0	6747	10983.54244925847	8
0	6750	10989.129013421115	9
0	6752	10992.0910422578	8
0	6755	10992.26248974017	9
0	6757	10998.42138522668	10
0	6759	11000.657244432607	9
0	6762	11001.462337477388	10
0	6764	11002.398897792012	11
0	6766	11005.124959827656	10
0	6769	11005.276995387235	9
0	6772	11007.50326427206	8
0	6775	11009.117976064982	7
0	6778	11016.732132479105	8
0	6780	11020.15820781872	7
0	6783	11020.88616227815	8
0	6785	11021.232412338306	7
0	6788	11022.144309305079	6
0	6790	11031.627546159925	5
0	6792	11032.848011223182	6
0	6795	11035.397168906648	5
0	6797	11037.006586782223	6
0	6800	11039.647440334652	7
0	6803	11042.74502007258	8
0	6805	11052.757091728185	9
0	6807	11053.0003556783	10
0	6809	11059.596929463729	11
0	6811	11068.731219883089	10
0	6814	11070.289476802311	11
0	6816	11074.371550005179	12
0	6818	11075.301883339314	13
0	6820	11081.356717877124	14
0	6822	11085.051464366653	13
0	6825	11088.814211801649	14
0	6827	11089.526899461576	15
0	6829	11098.206362315229	14
0	6832	11098.6618971577	13
0	6835	11099.244945130119	14
0	6837	11099.536205688421	13
0	6840	11108.010144092115	14
0	6842	11108.225320123917	13
0	6845	11116.068325599233	14
0	6847	11116.168306337946	13
0	6850	11116.308987963514	14
0	6852	11127.017526415111	13
0	6855	11134.148798233088	12
0	6858	11135.701232202353	11
0	6861	11138.190731620666	10
0	6864	11141.890258022758	11
0	6866	11141.941216930693	10
0	6869	11147.784622961739	9
0	6872	11156.761640604498	8
0	6875	11159.323404904363	7
0	6878	11159.496793017684	8
0	6880	11160.369047926657	9
0	6882	11169.53767220717	10
0	6884	11172.218977329846	9
0	6887	11177.319254473049	8
0	6890	11179.872648615493	7
0	6893	11179.936277240638	6
0	6895	11179.997357180152	5
0	6897	11184.196762968094	4
0	6899	11185.68698228659	5
0	6902	11185.860696484767	4
0	6904	11186.515169892214	3
0	6906	11191.253022746658	2
0	6908	11203.441346460777	3
0	6911	11203.678344479151	4
0	6914	11203.688010894175	5
0	6917	11209.812323552369	6
0	6920	11220.020560237571	5
0	6922	11221.417122679004	4
0	6924	11231.957124013871	5
0	6927	11234.502494890885	4
0	6929	11236.100511574436	5
0	6932	11242.898598735428	4
0	6934	11261.19610617821	3
0	6936	11261.519956546163	4
0	6939	11263.089172105465	3
0	6941	11266.044758279231	2
0	6943	11266.668178799247	1
0	6945	11267.461746543755	2
0	6948	11271.45199951613	1
0	6950	11280.191364650499	2
0	6953	11283.825665266992	3
0	6956	11290.14438513407	2
0	6958	11294.383140205597	1
0	6960	11301.456127436895	0
0	6962	11322.526364859482	1
0	6965	11324.217734259306	2
0	6968	11327.728567675642	3
0	6971	11327.883032517183	4
0	6974	11335.75606814001	3
0	6976	11336.913355657917	2
0	6978	11342.971953371909	3
0	6981	11348.812929533954	4
0	6984	11357.361829933109	3
0	6986	11360.593832434302	4
0	6989	11374.108613262109	3
0	6991	11374.309398743479	2
0	6993	11375.39454619327	3
0	6996	11384.385702280989	2
0	6998	11385.593357813669	3
0	7001	11389.330583625352	4
0	7004	11391.549820544098	3
0	7006	11394.541950972846	2
0	7008	11397.358778728542	3
0	7011	11399.375896140003	4
0	7014	11402.314041479983	5
0	7017	11402.98572180025	6
0	7020	11409.150770286656	7
0	7023	11409.864138944802	8
0	7025	11411.066530547812	7
0	7028	11412.432120207945	8
0	7030	11412.703384228759	7
0	7033	11413.561569409558	6
0	7035	11414.434146451169	7
0	7038	11414.503969621624	8
0	7040	11415.346978746668	9
0	7042	11415.549067721074	10
0	7044	11418.012578085719	11
0	7046	11419.2591315746	12
0	7048	11419.806642577666	13
0	7050	11420.528231696677	12
0	7053	11424.821456551277	11
0	7056	11425.575061813023	12
0	7058	11426.117908837406	13
0	7060	11427.711506149544	12
0	7063	11428.132907114958	13
0	7065	11437.155763963664	12
0	7068	11439.110480244373	11
0	7071	11439.396383985972	10
0	7074	11440.377400805709	9
0	7077	11443.651801191685	10
0	7079	11444.016136968185	9
0	7082	11447.341607412538	10
0	7084	11448.756653061513	11
0	7086	11449.210124110776	12
0	7088	11455.772196051652	13
0	7090	11457.344901591485	12
0	7093	11461.27541510119	11
0	7096	11461.339784349835	10
0	7099	11471.354313792875	9
0	7102	11473.196480308316	8
0	7105	11473.427438730367	7
0	7108	11475.1428892232	8
0	7110	11475.906310768503	7
0	7113	11486.389999989779	6
0	7115	11487.021401815585	7
0	7118	11491.026088218236	6
0	7120	11498.153430086057	5
0	7122	11498.38428681976	4
0	7124	11502.298610863828	3
0	7126	11504.320641357385	4
0	7129	11507.788343350753	3
0	7131	11509.197114804137	4
0	7134	11522.779057838845	3
0	7136	11527.402874668724	4
0	7139	11528.734796220079	5
0	7142	11531.964819476993	6
0	7145	11533.745930293274	7
0	7148	11543.730076143539	8
0	7150	11543.752233664688	7
0	7153	11548.269021100866	8
0	7155	11552.723187592386	9
0	7157	11555.71057900435	8
0	7160	11557.669443446412	7
0	7163	11558.214173953283	6
0	7165	11558.733366581748	7
0	7168	11560.723065318082	6
0	7170	11561.606132044335	7
0	7173	11563.094706808296	6
0	7175	11565.045509666245	7
0	7178	11565.629610016983	8
0	7180	11567.54473622962	7
0	7183	11573.199951391261	6
0	7185	11577.79661727805	7
0	7188	11580.580600965067	6
0	7190	11582.092755392267	5
0	7192	11582.179916779665	6
0	7195	11583.160557555271	5
0	7197	11593.303031397479	6
0	7200	11597.235394267505	7
0	7203	11598.929365080127	6
0	7205	11604.317351537805	5
0	7207	11604.874451463979	4
0	7209	11605.136105569623	3
0	7211	11611.343110692758	2
0	7213	11618.197006882549	3
0	7216	11619.59558288282	4
0	7219	11619.83062246108	5
0	7222	11623.279437078809	6
0	7225	11625.191499281168	5
0	7227	11641.362640657815	6
0	7230	11642.16668484768	7
0	7233	11646.15481550299	8
0	7235	11656.798899176375	7
0	7238	11662.544719451577	8
0	7240	11670.270399531715	7
0	7243	11679.399056458617	8
0	7245	11681.509430789484	7
0	7248	11684.900180828558	6
0	7250	11688.210225085077	7
0	7253	11693.248599365203	6
0	7255	11697.599966908073	7
0	7258	11697.8410384205	6
0	7260	11699.312624465378	7
0	7263	11700.762405182454	6
0	7265	11701.464606385803	5
0	7267	11702.121237711306	4
0	7269	11723.930277914738	3
0	7271	11734.2726224768	4
0	7274	11754.289886337118	5
0	7277	11762.245093185496	4
0	7279	11765.682934462206	5
0	7282	11768.575487299619	4
0	7284	11772.616863027537	5
0	7287	11776.244170374197	6
0	7290	11778.605554342364	5
0	7292	11781.113125206625	6
0	7295	11786.675331454518	7
0	7298	11788.354250502799	6
0	7300	11790.345016112892	5
0	7302	11794.900974000813	6
0	7305	11798.678803989965	7
0	7308	11801.023311972267	8
0	7310	11803.550959285515	7
0	7313	11804.1809964517	6
0	7315	11804.655243546266	7
0	7318	11810.293959427069	6
0	7320	11811.062513009152	7
0	7323	11813.481138113543	8
0	7325	11814.612754953459	9
0	7327	11815.388863998851	8
0	7330	11820.09371557696	9
0	7332	11821.884025754045	10
0	7334	11822.657312455076	9
0	7337	11831.043117349798	10
0	7339	11832.70555475574	9
0	7342	11836.816387331329	10
0	7344	11839.414921768499	11
0	7346	11840.235555847675	12
0	7348	11846.180641082117	13
0	7350	11857.846322331294	12
0	7353	11861.457081230148	13
0	7355	11862.455968092857	14
0	7357	11866.198393127374	13
0	7360	11866.483377016491	14
0	7362	11867.876730785343	15
0	7364	11869.999690447542	16
0	7366	11870.383188044199	17
0	7368	11870.913147159264	16
0	7371	11876.304674482636	15
0	7374	11877.427335550675	16
0	7376	11878.8900022977	15
0	7379	11887.038752955793	14
0	7382	11888.930170751631	13
0	7385	11905.677266754609	14
0	7387	11916.667020872106	15
0	7389	11916.697963457605	16
0	7391	11918.052483309438	15
0	7394	11924.210112285793	16
0	7396	11925.783877794828	17
0	7398	11925.996202315027	16
0	7401	11926.314782736841	15
0	7404	11932.705070266222	16
0	7406	11935.666983133204	15
0	7409	11940.29696104043	16
0	7411	11941.788558113955	17
0	7413	11942.467529402274	18
0	7415	11947.123301957566	17
0	7418	11951.743657130322	18
0	7420	11954.079879483074	17
0	7423	11957.315900591003	16
0	7426	11959.897831133572	15
0	7429	11961.731088737661	14
0	7432	11964.948119207289	13
0	7435	11968.833208540846	14
0	7437	11975.449792247038	13
0	7440	11979.788226454778	12
0	7443	11980.147398417353	11
0	7446	11980.574791216922	10
0	7449	11983.859769048444	9
0	7452	11984.860981935585	8
0	7455	11987.420007328733	7
0	7458	11989.822133589792	6
0	7460	11998.942654889094	7
0	7463	12009.115534907649	8
0	7465	12009.817055612736	7
0	7468	12016.619599832513	8
0	7470	12022.123311977931	7
0	7473	12033.938184837668	6
0	7475	12043.763045549645	7
0	7478	12045.234398613357	6
0	7480	12046.947533589546	7
0	7483	12049.77804474618	6
0	7485	12052.615822193066	7
0	7488	12054.084183537597	6
0	7490	12063.853185931507	5
0	7492	12065.599742329625	6
0	7495	12068.457756691774	7
0	7498	12081.812010414193	6
0	7500	12082.938644783467	7
0	7503	12088.709102611763	6
0	7505	12089.317832590147	7
0	7508	12090.754009915599	6
0	7510	12091.592676765522	5
0	7512	12093.610809253924	6
0	7515	12098.865034666597	5
0	7517	12111.866603825476	4
0	7519	12114.979009041988	5
0	7522	12117.317478034086	4
0	7524	12119.276478938679	5
0	7527	12122.27969883855	4
0	7529	12125.160932978227	5
0	7532	12141.052914136742	4
0	7534	12147.229423561545	5
0	7537	12149.716560066377	6
0	7540	12159.962930650923	7
0	7543	12160.941758655566	6
0	7545	12161.742969935321	5
0	7547	12169.491693771554	4
0	7549	12174.284577849199	3
0	7551	12176.753478079516	4
0	7554	12177.02111615253	5
0	7557	12180.741802102515	6
0	7560	12185.182055905031	7
0	7563	12185.19313040588	8
0	7565	12185.981926407471	9
0	7567	12188.258727879393	10
0	7569	12198.712255752082	9
0	7572	12198.770568072877	8
0	7575	12201.532062812903	7
0	7578	12209.799505499783	6
0	7580	12218.281495598127	5
0	7582	12218.994058307111	6
0	7585	12219.06985932889	5
0	7587	12219.269308166436	4
0	7589	12221.081494574127	3
0	7591	12222.05860284379	4
0	7594	12228.907932103026	5
0	7597	12231.194901761413	4
0	7599	12237.314641019602	3
0	7601	12237.676224966198	2
0	7603	12244.567279240943	3
0	7606	12247.181965198127	2
0	7608	12252.806560174674	1
0	7610	12252.822644864279	2
0	7613	12257.729989393274	3
0	7616	12261.356265159786	4
0	7619	12266.060615653203	5
0	7622	12274.874710991726	6
0	7625	12275.294089010208	5
0	7627	12275.901762168751	4
0	7629	12278.151728272376	5
0	7632	12279.243186081643	4
0	7634	12284.937862751091	5
0	7637	12291.172000036483	4
0	7639	12301.945307310636	5
0	7642	12307.707213974512	4
0	7644	12311.157834802495	3
0	7646	12313.867300004067	4
0	7649	12314.435001287125	3
0	7651	12333.927304823181	2
0	7653	12337.07457233354	3
0	7656	12355.503427346579	4
0	7659	12369.823074368234	3
0	7661	12386.4267472733	2
0	7663	12386.906274199788	1
0	7665	12394.021011344431	2
0	7668	12398.165243801378	3
0	7671	12400.673274697963	2
0	7673	12401.947592159064	3
0	7676	12402.049583490083	2
0	7678	12405.847022242409	1
0	7680	12420.004289292111	2
0	7683	12431.415508824244	1
0	7685	12447.09021651535	2
0	7688	12447.62859225298	3
0	7691	12447.654317872766	2
0	7693	12460.185699089846	3
0	7696	12469.439293407439	4
0	7699	12470.001832825362	3
0	7701	12475.924921738101	2
0	7703	12478.447715789025	3
0	7706	12480.549759068542	4
0	7709	12482.796888312519	5
0	7712	12483.311914135377	4
0	7714	12485.411358956793	3
0	7716	12488.989464653975	4
0	7719	12490.940902012865	5
0	7722	12502.804576927891	6
0	7725	12504.257210669178	7
0	7728	12504.770251100526	6
0	7730	12510.524589430088	5
0	7732	12515.239002715826	6
0	7735	12523.672145300907	5
0	7737	12528.147850492821	4
0	7739	12532.213580608067	3
0	7741	12535.725354033968	4
0	7744	12545.950044385077	5
0	7747	12548.736033458522	6
0	7750	12549.165288914617	5
0	7752	12553.878049028916	4
0	7754	12554.012055859052	5
0	7757	12554.941725086247	4
0	7759	12556.97791040407	3
0	7761	12558.839886198486	4
0	7764	12560.565484928693	5
0	7767	12566.014567153484	6
0	7770	12567.85557329874	7
0	7773	12568.144389266074	6
0	7775	12569.545755392212	5
0	7777	12572.537966747788	4
0	7779	12573.738569519734	3
0	7781	12577.89521633565	2
0	7783	12579.902382443385	3
0	7786	12586.036185500406	4
0	7789	12588.868597628017	3
0	7791	12597.088399982223	2
0	7793	12600.911438079755	3
0	7796	12605.518821862721	4
0	7799	12606.716783528787	5
0	7802	12626.415995836496	4
0	7804	12636.224559332666	5
0	7807	12636.517294977604	4
0	7809	12640.678180645432	5
0	7812	12643.541002024054	6
0	7815	12644.749480763024	5
0	7817	12658.345687196742	6
0	7820	12658.986289791216	5
0	7822	12659.003787720512	6
0	7825	12664.673865188237	5
0	7827	12672.635240555858	6
0	7830	12676.410716262677	5
0	7832	12679.703018683553	4
0	7834	12683.017933109038	5
0	7837	12683.882301644019	6
0	7840	12689.864651046513	5
0	7842	12694.088053974558	4
0	7844	12713.530226742591	5
0	7847	12713.649157405023	4
0	7849	12714.890683452935	5
0	7852	12723.475644079406	4
0	7854	12727.080045695657	5
0	7857	12728.144170846431	4
0	7859	12729.981574785306	5
0	7862	12732.251575605626	6
0	7865	12732.336197662489	5
0	7867	12732.87837401437	6
0	7870	12733.176342752795	7
0	7873	12737.59873742083	8
0	7875	12741.778171367612	9
0	7877	12742.145873178653	8
0	7880	12742.689056626059	9
0	7882	12744.792203789902	8
0	7885	12757.302601387535	7
0	7888	12759.502605298695	8
0	7890	12762.313329311338	7
0	7893	12766.221273309777	8
0	7895	12770.746256677955	9
0	7897	12770.911459330316	8
0	7900	12771.152485234352	7
0	7903	12773.011071309879	8
0	7905	12775.684634629567	9
0	7907	12782.94393798908	10
0	7909	12784.137084277736	9
0	7912	12785.004830824598	8
0	7915	12788.848718802553	7
0	7918	12790.116461481752	6
0	7920	12801.040470694517	5
0	7922	12804.848124351267	6
0	7925	12805.012225681857	5
0	7927	12805.848328742008	6
0	7930	12807.765784426422	5
0	7932	12808.438838489253	4
0	7934	12809.66963797326	3
0	7936	12817.684929872657	4
0	7939	12820.805267389241	3
0	7941	12822.184761857307	2
0	7943	12830.199462330647	1
0	7945	12847.48392486539	2
0	7948	12852.657749467982	1
0	7950	12855.037054881921	2
0	7953	12859.399267528274	1
0	7955	12876.609333713283	2
0	7958	12876.630778979972	3
0	7961	12880.608750738712	4
0	7964	12884.302429124389	3
0	7966	12890.629466936811	2
0	7968	12902.05671145669	3
0	7971	12904.27517168813	4
0	7974	12912.45797641051	3
0	7976	12913.238044350177	4
0	7979	12915.543749693444	5
0	7982	12917.577386995127	6
0	7985	12918.552734867413	5
0	7987	12921.105412756007	4
0	7989	12922.861178149378	5
0	7992	12923.061694849804	6
0	7995	12923.38821085261	7
0	7998	12923.448181608198	8
[...]
1	7173	11563.094706808296	0
1	7175	11565.045509666245	0
1	7178	11565.629610016983	1
1	7180	11567.54473622962	0
1	7183	11573.199951391261	0
1	7185	11577.79661727805	0
1	7188	11580.580600965067	0
1	7190	11582.092755392267	0
1	7192	11582.179916779665	0
1	7195	11583.160557555271	0
1	7197	11593.303031397479	0
1	7200	11597.235394267505	0
1	7203	11598.929365080127	0
1	7205	11604.317351537805	0
1	7207	11604.874451463979	0
1	7209	11605.136105569623	0
1	7211	11611.343110692758	0
1	7213	11618.197006882549	0
1	7216	11619.59558288282	0
1	7219	11619.83062246108	0
1	7222	11623.279437078809	0
1	7225	11625.191499281168	0
1	7227	11641.362640657815	0
1	7230	11642.16668484768	0
1	7233	11646.15481550299	1
1	7235	11656.798899176375	0
1	7238	11662.544719451577	1
1	7240	11670.270399531715	0
1	7243	11679.399056458617	1
1	7245	11681.509430789484	0
1	7248	11684.900180828558	0
1	7250	11688.210225085077	0
1	7253	11693.248599365203	0
1	7255	11697.599966908073	0
1	7258	11697.8410384205	0
1	7260	11699.312624465378	0
1	7263	11700.762405182454	0
1	7265	11701.464606385803	0
1	7267	11702.121237711306	0
1	7269	11723.930277914738	0
1	7271	11734.2726224768	0
1	7274	11754.289886337118	0
1	7277	11762.245093185496	0
1	7279	11765.682934462206	0
1	7282	11768.575487299619	0
1	7284	11772.616863027537	0
1	7287	11776.244170374197	0
1	7290	11778.605554342364	0
1	7292	11781.113125206625	0
1	7295	11786.675331454518	0
1	7298	11788.354250502799	0
1	7300	11790.345016112892	0
1	7302	11794.900974000813	0
1	7305	11798.678803989965	0
1	7308	11801.023311972267	1
1	7310	11803.550959285515	0
1	7313	11804.1809964517	0
1	7315	11804.655243546266	0
1	7318	11810.293959427069	0
1	7320	11811.062513009152	0
1	7323	11813.481138113543	1
1	7325	11814.612754953459	2
1	7327	11815.388863998851	1
1	7330	11820.09371557696	2
1	7332	11821.884025754045	3
1	7334	11822.657312455076	2
1	7337	11831.043117349798	3
1	7339	11832.70555475574	2
1	7342	11836.816387331329	3
1	7344	11839.414921768499	4
1	7346	11840.235555847675	5
1	7348	11846.180641082117	6
1	7350	11857.846322331294	5
1	7353	11861.457081230148	6
1	7355	11862.455968092857	7
1	7357	11866.198393127374	6
1	7360	11866.483377016491	7
1	7362	11867.876730785343	8
1	7364	11869.999690447542	9
1	7366	11870.383188044199	10
1	7368	11870.913147159264	9
1	7371	11876.304674482636	8
1	7374	11877.427335550675	9
1	7376	11878.8900022977	8
1	7379	11887.038752955793	7
1	7382	11888.930170751631	6
1	7385	11905.677266754609	7
1	7387	11916.667020872106	8
1	7389	11916.697963457605	9
1	7391	11918.052483309438	8
1	7394	11924.210112285793	9
1	7396	11925.783877794828	10
1	7398	11925.996202315027	9
1	7401	11926.314782736841	8
1	7404	11932.705070266222	9
1	7406	11935.666983133204	8
1	7409	11940.29696104043	9
1	7411	11941.788558113955	10
1	7413	11942.467529402274	11
1	7415	11947.123301957566	10
1	7418	11951.743657130322	11
1	7420	11954.079879483074	10
1	7423	11957.315900591003	9
1	7426	11959.897831133572	8
1	7429	11961.731088737661	7
1	7432	11964.948119207289	6
1	7435	11968.833208540846	7
1	7437	11975.449792247038	6
1	7440	11979.788226454778	5
1	7443	11980.147398417353	4
1	7446	11980.574791216922	3
1	7449	11983.859769048444	2
1	7452	11984.860981935585	1
1	7455	11987.420007328733	0
1	7458	11989.822133589792	0
1	7460	11998.942654889094	0
1	7463	12009.115534907649	1
1	7465	12009.817055612736	0
1	7468	12016.619599832513	1
1	7470	12022.123311977931	0
1	7473	12033.938184837668	0
1	7475	12043.763045549645	0
1	7478	12045.234398613357	0
1	7480	12046.947533589546	0
1	7483	12049.77804474618	0
1	7485	12052.615822193066	0
1	7488	12054.084183537597	0
1	7490	12063.853185931507	0
1	7492	12065.599742329625	0
1	7495	12068.457756691774	0
1	7498	12081.812010414193	0
1	7500	12082.938644783467	0
1	7503	12088.709102611763	0
1	7505	12089.317832590147	0
1	7508	12090.754009915599	0
1	7510	12091.592676765522	0
1	7512	12093.610809253924	0
1	7515	12098.865034666597	0
1	7517	12111.866603825476	0
1	7519	12114.979009041988	0
1	7522	12117.317478034086	0
1	7524	12119.276478938679	0
1	7527	12122.27969883855	0
1	7529	12125.160932978227	0
1	7532	12141.052914136742	0
1	7534	12147.229423561545	0
1	7537	12149.716560066377	0
1	7540	12159.962930650923	0
1	7543	12160.941758655566	0
1	7545	12161.742969935321	0
1	7547	12169.491693771554	0
1	7549	12174.284577849199	0
1	7551	12176.753478079516	0
1	7554	12177.02111615253	0
1	7557	12180.741802102515	0
1	7560	12185.182055905031	0
1	7563	12185.19313040588	1
1	7565	12185.981926407471	2
1	7567	12188.258727879393	3
1	7569	12198.712255752082	2
1	7572	12198.770568072877	1
1	7575	12201.532062812903	0
1	7578	12209.799505499783	0
1	7580	12218.281495598127	0
1	7582	12218.994058307111	0
1	7585	12219.06985932889	0
1	7587	12219.269308166436	0
1	7589	12221.081494574127	0
1	7591	12222.05860284379	0
1	7594	12228.907932103026	0
1	7597	12231.194901761413	0
1	7599	12237.314641019602	0
1	7601	12237.676224966198	0
1	7603	12244.567279240943	0
1	7606	12247.181965198127	0
1	7608	12252.806560174674	0
1	7610	12252.822644864279	0
1	7613	12257.729989393274	0
1	7616	12261.356265159786	0
1	7619	12266.060615653203	0
1	7622	12274.874710991726	0
1	7625	12275.294089010208	0
1	7627	12275.901762168751	0
1	7629	12278.151728272376	0
1	7632	12279.243186081643	0
1	7634	12284.937862751091	0
1	7637	12291.172000036483	0
1	7639	12301.945307310636	0
1	7642	12307.707213974512	0
1	7644	12311.157834802495	0
1	7646	12313.867300004067	0
1	7649	12314.435001287125	0
1	7651	12333.927304823181	0
1	7653	12337.07457233354	0
1	7656	12355.503427346579	0
1	7659	12369.823074368234	0
1	7661	12386.4267472733	0
1	7663	12386.906274199788	0
1	7665	12394.021011344431	0
1	7668	12398.165243801378	0
1	7671	12400.673274697963	0
1	7673	12401.947592159064	0
1	7676	12402.049583490083	0
1	7678	12405.847022242409	0
1	7680	12420.004289292111	0
1	7683	12431.415508824244	0
1	7685	12447.09021651535	0
1	7688	12447.62859225298	0
1	7691	12447.654317872766	0
1	7693	12460.185699089846	0
1	7696	12469.439293407439	0
1	7699	12470.001832825362	0
1	7701	12475.924921738101	0
1	7703	12478.447715789025	0
1	7706	12480.549759068542	0
1	7709	12482.796888312519	0
1	7712	12483.311914135377	0
1	7714	12485.411358956793	0
1	7716	12488.989464653975	0
1	7719	12490.940902012865	0
1	7722	12502.804576927891	0
1	7725	12504.257210669178	0
1	7728	12504.770251100526	0
1	7730	12510.524589430088	0
1	7732	12515.239002715826	0
1	7735	12523.672145300907	0
1	7737	12528.147850492821	0
1	7739	12532.213580608067	0
1	7741	12535.725354033968	0
1	7744	12545.950044385077	0
1	7747	12548.736033458522	0
1	7750	12549.165288914617	0
1	7752	12553.878049028916	0
1	7754	12554.012055859052	0
1	7757	12554.941725086247	0
1	7759	12556.97791040407	0
1	7761	12558.839886198486	0
1	7764	12560.565484928693	0
1	7767	12566.014567153484	0
1	7770	12567.85557329874	0
1	7773	12568.144389266074	0
1	7775	12569.545755392212	0
1	7777	12572.537966747788	0
1	7779	12573.738569519734	0
1	7781	12577.89521633565	0
1	7783	12579.902382443385	0
1	7786	12586.036185500406	0
1	7789	12588.868597628017	0
1	7791	12597.088399982223	0
1	7793	12600.911438079755	0
1	7796	12605.518821862721	0
1	7799	12606.716783528787	0
1	7802	12626.415995836496	0
1	7804	12636.224559332666	0
1	7807	12636.517294977604	0
1	7809	12640.678180645432	0
1	7812	12643.541002024054	0
1	7815	12644.749480763024	0
1	7817	12658.345687196742	0
1	7820	12658.986289791216	0
1	7822	12659.003787720512	0
1	7825	12664.673865188237	0
1	7827	12672.635240555858	0
1	7830	12676.410716262677	0
1	7832	12679.703018683553	0
1	7834	12683.017933109038	0
1	7837	12683.882301644019	0
1	7840	12689.864651046513	0
1	7842	12694.088053974558	0
1	7844	12713.530226742591	0
1	7847	12713.649157405023	0
1	7849	12714.890683452935	0
1	7852	12723.475644079406	0
1	7854	12727.080045695657	0
1	7857	12728.144170846431	0
1	7859	12729.981574785306	0
1	7862	12732.251575605626	0
1	7865	12732.336197662489	0
1	7867	12732.87837401437	0
1	7870	12733.176342752795	0
1	7873	12737.59873742083	1
1	7875	12741.778171367612	2
1	7877	12742.145873178653	1
1	7880	12742.689056626059	2
1	7882	12744.792203789902	1
1	7885	12757.302601387535	0
1	7888	12759.502605298695	1
1	7890	12762.313329311338	0
1	7893	12766.221273309777	1
1	7895	12770.746256677955	2
1	7897	12770.911459330316	1
1	7900	12771.152485234352	0
1	7903	12773.011071309879	1
1	7905	12775.684634629567	2
1	7907	12782.94393798908	3
1	7909	12784.137084277736	2
1	7912	12785.004830824598	1
1	7915	12788.848718802553	0
1	7918	12790.116461481752	0
1	7920	12801.040470694517	0
1	7922	12804.848124351267	0
1	7925	12805.012225681857	0
1	7927	12805.848328742008	0
1	7930	12807.765784426422	0
1	7932	12808.438838489253	0
1	7934	12809.66963797326	0
1	7936	12817.684929872657	0
1	7939	12820.805267389241	0
1	7941	12822.184761857307	0
1	7943	12830.199462330647	0
1	7945	12847.48392486539	0
1	7948	12852.657749467982	0
1	7950	12855.037054881921	0
1	7953	12859.399267528274	0
1	7955	12876.609333713283	0
1	7958	12876.630778979972	0
1	7961	12880.608750738712	0
1	7964	12884.302429124389	0
1	7966	12890.629466936811	0
1	7968	12902.05671145669	0
1	7971	12904.27517168813	0
1	7974	12912.45797641051	0
1	7976	12913.238044350177	0
1	7979	12915.543749693444	0
1	7982	12917.577386995127	0
1	7985	12918.552734867413	0
1	7987	12921.105412756007	0
1	7989	12922.861178149378	0
1	7992	12923.061694849804	0
1	7995	12923.38821085261	0
1	7998	12923.448181608198	1
1	8000	12931.614840960619	2
1	8002	12933.47785924272	1
1	8005	12938.807577914682	0
1	8008	12940.00913793786	0
1	8010	12941.630345642854	0
1	8012	12952.597445135805	0
1	8015	12956.795528688395	0
1	8018	12966.246771877126	1
1	8020	12968.142777674314	0
1	8023	12970.037664509085	1
1	8025	12979.80790592433	2
1	8027	12983.218842591866	1
1	8030	12987.810116045111	0
1	8033	12989.937589381887	0
1	8035	12993.067062089678	0
1	8038	12994.916691463175	0
1	8040	13000.319072307435	0
1	8043	13010.195503265683	1
1	8045	13010.770201003228	0
1	8048	13011.442204216988	0
1	8050	13015.566156856509	0
1	8052	13016.359801831809	0
1	8055	13025.949899559111	0
1	8057	13029.443942256076	0
1	8059	13036.716098565678	0
1	8061	13041.050978942919	0
1	8064	13045.915231949027	0
1	8067	13047.018900733988	0
1	8069	13049.385361465081	0
1	8072	13056.719552438573	0
1	8075	13059.534568008215	0
1	8077	13064.95220765515	0
1	8079	13074.946030381033	0
1	8082	13083.438456911404	0
1	8085	13083.459872684114	0
1	8087	13093.799947351993	0
1	8089	13094.722695390012	0
1	8091	13095.194723438359	0
1	8094	13097.115126014364	0
1	8096	13098.929700858059	0
1	8099	13099.484227592888	0
1	8101	13102.293451189808	0
1	8103	13102.467870370119	0
1	8106	13102.604819171131	0
1	8108	13111.29447279172	0
1	8111	13114.280756424654	0
1	8113	13119.070283936342	0
1	8116	13123.953752280669	0
1	8119	13126.677577812955	0
1	8122	13127.388811612124	0
1	8125	13132.858261721089	0
1	8127	13140.611823237851	0
1	8129	13141.734553533659	0
1	8131	13143.986030671308	0
1	8134	13144.193373426627	0
1	8136	13146.109991012491	0
1	8139	13147.064109972292	0
1	8142	13147.743099762781	0
1	8145	13149.65356823838	0
1	8148	13152.76263676823	1
1	8150	13154.379892258245	2
1	8152	13155.425192656017	1
1	8155	13159.255024731503	0
1	8158	13161.940036183139	1
1	8160	13166.067089963349	2
1	8162	13169.733286467791	3
1	8164	13172.164339504536	2
1	8167	13175.184080185322	1
1	8170	13178.411676395368	0
1	8173	13180.672532219814	1
1	8175	13191.036185531223	2
1	8177	13197.023899410611	3
1	8179	13204.254775948672	2
1	8182	13206.091005492975	3
1	8184	13206.628634936195	2
1	8187	13208.468278063361	1
1	8190	13211.441394966337	2
1	8192	13211.777264752666	1
1	8195	13212.691736106345	2
1	8197	13212.696105066018	3
1	8199	13214.167896615061	4
1	8201	13218.333749138746	3
1	8204	13218.600569773842	4
1	8206	13219.13341087177	5
1	8208	13219.658716353185	6
1	8210	13222.114535413523	7
1	8212	13223.982645061829	8
1	8214	13227.408709292324	9
1	8216	13228.871631048348	8
1	8219	13230.650000559853	7
1	8222	13231.990650298368	6
1	8225	13235.490700010197	5
1	8228	13240.560447190885	4
1	8231	13244.570387613876	3
1	8234	13248.961170772182	4
1	8236	13249.700270922224	5
1	8238	13250.874896070262	4
1	8241	13251.64090259323	5
1	8243	13254.695336863708	4
1	8246	13258.431157801082	3
1	8249	13259.015936659466	4
1	8251	13261.809439759244	3
1	8254	13268.93512696912	2
1	8257	13272.985903680182	1
1	8260	13273.657329866329	0
1	8263	13274.073229910459	0
1	8265	13274.65040683305	0
1	8268	13276.032674974032	0
1	8270	13277.034802232222	0
1	8272	13279.143666924454	0
1	8274	13284.675031585041	0
1	8277	13285.428346879754	0
1	8279	13285.540812276462	0
1	8281	13286.494425130778	0
1	8283	13297.667115135402	0
1	8286	13299.035529687727	0
1	8289	13300.422229857548	0
1	8292	13303.772304675594	0
1	8295	13304.48964276242	0
1	8297	13311.217693128578	0
1	8300	13313.638923072701	0
1	8302	13320.103459372054	0
1	8304	13321.611287788039	0
1	8307	13322.594614093246	0
1	8310	13324.623533574338	0
1	8312	13329.837871230318	0
1	8314	13331.303543477675	0
1	8317	13338.753869664191	0
1	8319	13339.156682804711	0
1	8321	13341.715880345281	0
1	8324	13341.806421198179	0
1	8326	13348.182081764017	0
1	8328	13357.134316323305	0
1	8331	13363.41180876955	0
1	8333	13363.609048783514	0
1	8335	13365.251330357421	0
1	8338	13371.721651367661	0
1	8341	13374.277671014909	0
1	8343	13385.089543969209	0
1	8346	13385.298295688911	0
1	8349	13390.520244653251	0
1	8352	13390.952824964674	0
1	8354	13390.9924770761	0
1	8357	13399.123831568824	0
1	8359	13400.597927091134	0
1	8361	13410.700434109508	0
1	8364	13411.36801825	0
1	8367	13411.772883924538	0
1	8370	13417.597066988491	0
1	8373	13420.369603061525	1
1	8375	13431.625047423735	2
1	8377	13431.774783457447	1
1	8380	13436.22632360798	0
1	8383	13440.00697010002	0
1	8385	13441.668652795706	0
1	8388	13441.931097233494	1
1	8390	13446.262877182803	2
1	8392	13448.348802316827	1
1	8395	13450.24905999887	0
1	8398	13451.143443513012	1
1	8400	13452.662577572716	2
1	8402	13455.394943791313	1
1	8405	13463.735931446894	0
1	8408	13466.597089744415	1
1	8410	13467.504327521953	2
1	8412	13468.582570863903	1
1	8415	13472.163753259647	0
1	8418	13476.339901961835	1
1	8420	13480.728547400824	0
1	8423	13488.916302078428	0
1	8425	13489.940893395947	0
1	8428	13493.656609226214	0
1	8430	13496.256706154651	0
1	8433	13501.383314726632	1
1	8435	13508.492946947528	2
1	8437	13522.332237759566	1
1	8440	13525.608767131388	2
1	8442	13526.042977464603	1
1	8445	13534.141158640682	0
1	8448	13543.752690258075	1
1	8450	13547.124994829765	0
1	8453	13548.2925784619	0
1	8455	13554.325411107516	0
1	8458	13554.645806400125	0
1	8460	13555.179860045381	0
1	8462	13560.700726523678	0
1	8464	13561.172204879061	0
1	8467	13561.75381884437	0
1	8469	13565.389555196636	0
1	8472	13567.074174474863	0
1	8474	13567.460146185693	0
1	8476	13569.772504748439	0
1	8479	13571.952876458351	0
1	8481	13573.513497366585	0
1	8484	13583.22438187109	0
1	8487	13584.484395582966	0
1	8489	13589.023769361555	0
1	8492	13592.559234872535	0
1	8495	13597.317306717174	0
1	8497	13597.479257748493	0
1	8499	13598.274945174325	0
1	8501	13601.923299276007	0
1	8503	13610.149357189861	0
1	8506	13615.190449026436	0
1	8508	13639.0185973253	0
1	8511	13649.71188563531	0
1	8514	13666.176615056536	0
1	8517	13666.21794534537	0
1	8520	13667.58096421486	0
1	8523	13671.104145453452	0
1	8525	13672.910852502702	0
1	8527	13677.0584534201	0
1	8530	13679.547577712097	0
1	8532	13683.559315717132	0
1	8534	13686.277741575117	0
1	8537	13689.106999950785	0
1	8539	13706.324048804289	0
1	8541	13706.434462846765	0
1	8544	13706.711780467262	0
1	8547	13706.863888587655	0
1	8549	13711.71726547875	0
1	8551	13716.627357737508	0
1	8554	13716.935118627641	0
1	8556	13717.311909370913	0
1	8558	13733.944375142922	0
1	8561	13735.502823915089	0
1	8564	13750.409911785451	0
1	8567	13755.695632532792	0
1	8570	13755.742943356648	0
1	8572	13761.404521758823	0
1	8575	13762.614045170374	0
1	8578	13763.706916047903	1
1	8580	13767.264663687544	2
1	8582	13767.986531940708	1
1	8585	13772.994168087945	0
1	8588	13775.036407316094	1
1	8590	13788.085060575485	0
1	8593	13791.845062188143	0
1	8595	13797.168248660534	0
1	8598	13799.356767558527	1
1	8600	13803.967187947892	0
1	8603	13808.755682644916	0
1	8605	13819.900149316641	0
1	8608	13821.442360615281	0
1	8610	13827.873023549877	0
1	8613	13829.261753633743	0
1	8615	13830.12822112418	0
1	8617	13830.532638922549	0
1	8620	13839.999355109414	0
1	8623	13843.319007771211	1
1	8625	13844.217685216426	2
1	8627	13850.220295433968	1
1	8630	13851.552269514796	2
1	8632	13852.435636668011	1
1	8635	13852.846061397393	0
1	8638	13856.736832392262	1
1	8640	13867.401305504636	0
1	8643	13872.628581626815	0
1	8645	13876.578027176235	0
1	8647	13879.130614537025	0
1	8649	13879.131956373281	0
1	8651	13883.154304011887	0
1	8654	13890.201564950094	0
1	8657	13891.481049781048	0
1	8660	13893.821274364435	0
1	8663	13896.196850834685	1
1	8665	13897.992108462932	2
1	8667	13910.223036591337	1
1	8670	13912.691383709682	0
1	8673	13914.535806984192	1
1	8675	13915.368611415089	0
1	8678	13921.998500725025	0
1	8680	13922.661508368644	0
1	8683	13923.032849928901	0
1	8685	13924.840733044985	0
1	8687	13925.524158810358	0
1	8689	13928.078002067485	0
1	8692	13928.312408086201	0
1	8694	13930.668742070088	0
1	8696	13939.519756853545	0
1	8699	13941.697773887585	0
1	8701	13942.167899913014	0
1	8703	13957.857753860298	0
1	8706	13961.416941612182	0
1	8709	13962.667544250656	0
1	8711	13963.058564158811	0
1	8714	13970.317468730272	0
1	8716	13972.931204372726	0
1	8719	13979.016937187403	0
1	8722	13986.098671944614	0
1	8725	13989.258074281344	0
1	8728	13990.648220578091	0
1	8730	13993.535056074943	0
1	8732	13994.910582054389	0
1	8734	13997.274503047357	0
1	8736	14002.526821376589	0
1	8739	14005.571548571088	0
1	8742	14007.397521556675	0
1	8745	14009.364818753245	0
1	8747	14012.134919988498	0
1	8750	14024.867576893125	0
1	8753	14029.407837563779	1
1	8755	14031.886254640254	2
1	8757	14034.771570122369	1
1	8760	14035.423456015683	2
1	8762	14038.25704492837	3
1	8764	14038.265450104268	2
1	8767	14040.744620034241	1
1	8770	14040.784604674201	0
1	8773	14041.618419530588	0
1	8775	14057.975126019741	0
1	8778	14068.17100811497	0
1	8780	14076.005320065756	0
1	8782	14081.968019496052	0
1	8784	14084.435050130935	0
1	8786	14088.571683271253	0
1	8789	14089.415535803447	0
1	8791	14099.098197125538	0
1	8794	14099.475043825445	0
1	8797	14102.49644634624	0
1	8799	14107.371253978423	0
1	8801	14109.877356961704	0
1	8804	14111.560692187574	0
1	8807	14112.653220414536	0
1	8809	14113.693235133226	0
1	8811	14114.299639490474	0
1	8814	14114.453688416257	0
1	8816	14118.505005869718	0
1	8818	14119.900460492582	0
1	8820	14120.185986106571	0
1	8823	14127.082479124947	0
1	8826	14130.85524488855	0
1	8829	14132.731494045542	0
1	8831	14142.938483438055	0
1	8834	14145.156110946193	0
1	8837	14145.617953436609	0
1	8839	14147.498856812866	0
1	8841	14157.857145246766	0
1	8844	14167.087255353699	0
1	8847	14170.466482948922	0
1	8850	14175.161381036315	0
1	8852	14179.317307468607	0
1	8855	14191.105129681834	0
1	8858	14193.856742979459	0
1	8860	14202.031211228462	0
1	8862	14208.604729906536	0
1	8864	14209.151340431938	0
1	8866	14215.772541505449	0
1	8868	14217.641668703516	0
1	8871	14218.797852403772	0
1	8873	14218.815891937668	0
1	8875	14228.29290350708	0
1	8878	14231.957700701893	0
1	8880	14245.162243362163	0
1	8883	14246.382852547282	0
1	8886	14246.906849339989	0
1	8888	14253.344524924054	0
1	8890	14286.501304236332	0
1	8892	14294.112738145308	0
1	8895	14310.188807078912	0
1	8898	14311.384475683367	0
1	8900	14312.87168087393	0
1	8902	14313.795285563944	0
1	8905	14318.452733989039	0
1	8908	14318.823050036384	0
1	8911	14318.827244219916	0
1	8913	14324.153697044575	0
1	8916	14324.208600447912	0
1	8918	14327.301556220321	0
1	8921	14332.060566267454	0
1	8924	14337.55653135471	0
1	8927	14338.506755944623	0
1	8929	14341.581256950947	0
1	8931	14344.268317618142	0
1	8934	14345.780145751886	0
1	8937	14346.582496954155	0
1	8939	14353.545471734653	0
1	8942	14354.256786633413	0
1	8945	14359.772890008786	0
1	8948	14362.935743597558	0
1	8950	14364.595377272822	0
1	8953	14372.382840286988	0
1	8955	14374.775240862373	0
1	8957	14380.721916987522	0
1	8960	14380.889179179443	0

