version 2
run POLICY_1-31-20191213-12:40:10-1220
attr configname POLICY_1
attr datetime 20191213-12:40:10
attr experiment POLICY_1
attr inifile omnetpp.ini
attr iterationvars ""
attr iterationvarsf ""
attr measurement ""
attr network Carrefour
attr processid 1220
attr repetition 31
attr replication #31
attr resultdir results
attr runnumber 31
attr seedset 31
param **.policy 1
param **.delta 0s
param **.tillsNumber 7
param **.capacity 0.3
param **.meanInterArrivalTime 8s
param **.meanItemsInACart 12
param **.interArrivalDistribution 0
param **.itemsInCartDistribution 0

vector 0 Carrefour.decider stats_numCustomers:vector ETV
attr "" ""
attr source numCustomers
vector 1 Carrefour.decider stats_numCustomersQueue:vector ETV
attr "" ""
attr source numCustomersQueue
0	770	1202.150961097634	17
0	773	1216.338416706992	16
0	776	1218.964828829662	15
0	779	1225.825305994935	16
0	781	1227.178337370151	15
0	784	1228.316986629475	14
0	787	1229.648470717875	13
0	790	1231.334276318204	12
0	793	1232.47513052916	13
0	795	1242.287087994799	14
0	797	1253.587883639013	15
0	799	1269.013543899139	16
0	801	1278.237577619955	17
0	803	1279.178236254419	16
0	806	1295.689066024359	15
0	809	1298.601403368687	16
0	811	1299.535566421097	15
0	814	1300.071185935878	16
0	816	1302.70158638318	15
0	819	1305.769377632495	16
0	821	1307.924031260961	15
0	824	1312.108960429644	14
0	827	1320.372864420511	13
0	830	1321.362934909964	14
0	832	1330.480778409422	13
0	835	1332.305600388343	14
0	837	1334.856779307421	13
0	840	1336.102461682425	14
0	842	1337.241639552607	15
0	844	1337.347228974001	14
0	847	1340.717030459769	15
0	849	1343.311596286687	14
0	852	1343.839503169053	15
0	854	1344.032964941382	14
0	857	1344.256897427998	13
0	860	1344.80848796855	12
0	863	1346.559248367726	13
0	865	1356.607590611731	12
0	868	1357.229904917183	11
0	871	1361.975012873483	10
0	874	1365.703986079982	9
0	877	1367.388910834877	10
0	879	1371.182652022309	9
0	882	1373.256507531043	10
0	884	1379.762508910684	9
0	887	1382.151572768466	8
0	890	1383.753654454542	7
0	893	1384.854039169151	6
0	895	1394.022392763098	5
0	897	1394.758170206529	4
0	899	1412.394980347956	3
0	901	1435.586755990877	4
0	904	1439.434355175227	5
0	907	1440.219194984487	6
0	910	1440.261590982689	5
0	912	1442.795504726854	6
0	915	1449.252102412188	5
0	917	1463.04997419791	6
0	920	1465.634983423759	7
0	923	1465.921143408634	8
0	925	1466.849307692242	7
0	928	1467.677064245905	8
0	930	1468.774776470633	9
0	932	1472.671087662627	10
0	934	1474.804740817341	9
0	937	1476.314582346098	8
0	940	1480.78134068231	7
0	943	1483.67899469291	6
0	945	1489.73250256147	7
0	948	1498.467201349735	6
0	950	1508.495943733831	5
0	952	1512.865290638754	4
0	954	1513.156630939258	5
0	957	1519.351699243435	4
0	959	1527.142854669488	5
0	962	1528.957018017891	4
0	964	1530.546927201744	5
0	967	1533.130038958507	4
0	969	1535.782234669362	5
0	972	1545.64473604583	6
0	975	1547.261732674245	7
0	978	1548.844075667959	6
0	980	1550.258202644839	5
0	982	1551.005252189158	4
0	984	1557.075608255978	5
0	987	1564.621318744362	4
0	989	1565.995262725819	5
0	992	1569.044828256274	4
0	994	1569.634167124403	5
0	997	1575.120685740438	4
0	999	1579.342028776518	3
0	1001	1579.952168772447	4
0	1004	1580.944326388787	5
0	1007	1586.642115658083	4
0	1009	1587.401985678081	3
0	1011	1589.932088161734	4
0	1014	1591.849603613474	3
0	1016	1592.386351339489	2
0	1018	1606.773275205009	1
0	1020	1611.436313542156	2
0	1023	1632.264627305673	1
0	1025	1636.893533599065	2
0	1028	1637.359328072798	3
0	1031	1637.827391007525	4
0	1034	1638.963425198024	5
0	1037	1640.165250537914	4
0	1039	1648.017852024083	3
0	1041	1659.192983358621	2
0	1043	1660.642641729517	3
0	1046	1666.747739441084	4
0	1049	1668.361796389364	5
0	1052	1668.644767327615	6
0	1055	1669.133386969042	7
0	1058	1669.600116877284	6
0	1060	1670.868962510617	5
0	1062	1684.674121942202	6
0	1065	1688.544288280824	5
0	1067	1702.037303111126	6
0	1070	1705.721036961812	5
0	1072	1705.86989021371	4
0	1074	1707.332792358244	3
0	1076	1715.70146337858	2
0	1078	1716.237248565247	3
0	1081	1717.283622200968	4
0	1084	1722.864303188158	3
0	1086	1731.190689065153	2
0	1088	1739.724655546749	3
0	1091	1739.992058132787	2
0	1093	1746.902759388391	3
0	1096	1756.566449536714	2
0	1098	1758.245385704158	3
0	1101	1784.930981520762	4
0	1104	1785.730120902613	5
0	1107	1788.737241544035	4
0	1109	1789.243958411627	5
0	1112	1790.808523532833	6
0	1115	1796.142813412535	7
0	1118	1797.617723850533	8
0	1120	1802.313229466349	7
0	1123	1804.851130795138	8
0	1125	1806.828274726643	7
0	1128	1808.297742685106	8
0	1130	1810.373779554685	7
0	1133	1813.640129208911	6
0	1135	1813.707747131578	5
0	1137	1816.818674258041	4
0	1139	1816.908944809685	3
0	1141	1821.162794485161	2
0	1143	1826.832633373436	1
0	1145	1827.449027280309	2
0	1148	1828.327760187197	3
0	1151	1829.090480955458	4
0	1154	1832.198692566144	5
0	1157	1834.083420332552	6
0	1160	1843.443804032733	5
0	1162	1845.934125568892	6
0	1165	1858.913371645239	5
0	1167	1862.060375708792	6
0	1170	1865.231351832057	5
0	1172	1868.840797687595	6
0	1175	1869.293065248901	5
0	1177	1876.276955885442	4
0	1179	1888.568554149362	5
0	1182	1895.833423637902	4
0	1184	1897.301252000689	3
0	1186	1898.636794336897	2
0	1188	1904.698384804944	3
0	1191	1905.187064276931	4
0	1194	1908.317340941688	3
0	1196	1909.075494480425	4
0	1199	1910.970247936849	5
0	1202	1911.232766863232	4
0	1204	1913.687673263048	3
0	1206	1934.029565172113	2
0	1208	1945.998485252198	1
0	1210	1946.420421221418	2
0	1213	1951.52874970355	1
0	1215	1953.518658826772	2
0	1218	1960.269164399497	3
0	1221	1961.21951277285	4
0	1224	1965.97474154317	5
0	1227	1967.790334686225	6
0	1230	1968.508989816808	5
0	1232	1985.977622123883	6
0	1235	1990.297233441818	7
0	1238	1993.036023484727	8
0	1240	1995.476094585511	7
0	1243	2001.595812310954	8
0	1245	2007.415051389206	9
0	1247	2010.164860965938	8
0	1250	2011.932941659869	9
0	1252	2012.77820752675	8
0	1255	2027.861080552825	7
0	1258	2028.711900218632	8
0	1260	2031.850588390532	9
0	1262	2040.080590469826	10
0	1264	2042.320066732815	11
0	1266	2043.501400870162	10
0	1269	2045.274369206031	9
0	1272	2045.795599617962	10
0	1274	2047.10077931184	9
0	1277	2052.003443416824	8
0	1280	2068.838348803504	7
0	1283	2075.658725768072	6
0	1285	2081.385152212685	7
0	1288	2085.575055630372	6
0	1290	2089.038187736644	7
0	1293	2096.621328025268	8
0	1295	2099.237820275445	7
0	1298	2103.46221012242	8
0	1300	2106.158287389929	9
0	1302	2115.16358707147	10
0	1304	2115.696884358577	9
0	1307	2117.17941617608	10
0	1309	2119.456619565985	11
0	1311	2121.266882344488	10
0	1314	2121.931541453292	9
0	1317	2122.514079272025	8
0	1320	2125.523795813609	7
0	1323	2125.525094726849	6
0	1325	2126.243198875468	5
0	1327	2129.642011717348	4
0	1329	2132.432524459197	5
0	1332	2133.215014617798	4
0	1334	2135.038389506624	3
0	1336	2147.230165351235	4
0	1339	2149.682805630946	3
0	1341	2152.902097956271	4
0	1344	2155.465536756331	5
0	1347	2155.526224848818	6
0	1350	2160.723884815712	7
0	1353	2162.977859948326	6
0	1355	2164.664680907344	5
0	1357	2166.651761997394	4
0	1359	2169.680414024795	3
0	1361	2172.843516862194	4
0	1364	2174.862228955049	3
0	1366	2176.650619334799	4
0	1369	2182.598698013624	5
0	1372	2188.040831866061	4
0	1374	2190.106129147051	5
0	1377	2193.377442869939	6
0	1380	2195.567503411047	5
0	1382	2202.201116713593	4
0	1384	2204.057842253295	5
0	1387	2205.440125289264	6
0	1390	2206.106676228721	7
0	1393	2208.721543502664	8
0	1395	2209.418786139543	7
0	1398	2210.407433185072	6
0	1400	2214.376161536838	7
0	1403	2216.635665898812	6
0	1405	2219.230272941537	5
0	1407	2219.836320018916	4
0	1409	2234.16185175408	5
0	1412	2237.09138134401	4
0	1414	2244.602174566572	5
0	1417	2251.306299536806	6
0	1420	2253.29555464082	5
0	1422	2257.064043649718	4
0	1424	2258.273250169384	3
0	1426	2264.707759193541	4
0	1429	2275.14878664529	5
0	1432	2275.775273051657	6
0	1435	2279.468080032832	5
0	1437	2280.414395665215	4
0	1439	2281.970665845497	5
0	1442	2282.62217804426	6
0	1445	2284.077125054849	7
0	1448	2289.20135894307	8
0	1450	2289.685356793765	7
0	1453	2296.882826258441	6
0	1455	2298.176606605249	7
0	1458	2298.565189408218	6
0	1460	2307.682497455013	5
0	1462	2310.049538980014	4
0	1464	2311.624372274224	3
0	1466	2312.848856916362	4
0	1469	2314.548452783328	5
0	1472	2322.469459785335	6
0	1475	2326.536488254825	5
0	1477	2328.670045439651	6
0	1480	2332.090661366515	7
0	1483	2342.944530359869	6
0	1485	2343.344166261658	7
0	1488	2344.835180669649	6
0	1490	2354.865608762767	7
0	1493	2358.60219752805	8
0	1495	2359.476739551265	7
0	1498	2363.209500853183	8
0	1500	2365.133021211805	9
0	1502	2367.355630476706	8
0	1505	2370.179014560173	7
0	1508	2370.417428951375	6
0	1510	2372.668238806945	7
0	1513	2377.628406569808	8
0	1515	2379.866437943839	7
0	1518	2379.905390191218	6
0	1520	2380.064724932096	5
0	1522	2380.438976445486	4
0	1524	2383.899606822695	5
0	1527	2385.021941224051	6
0	1530	2387.070201689547	7
0	1533	2390.238317818931	6
0	1535	2391.614723653205	5
0	1537	2394.281777694365	6
0	1540	2396.630821318402	5
0	1542	2398.450252377983	4
0	1544	2415.017538580416	3
0	1546	2424.386336274211	4
0	1549	2435.182522466389	3
0	1551	2441.957698254251	4
0	1554	2444.331143118439	3
0	1556	2445.694296349888	2
0	1558	2449.643110851561	3
0	1561	2450.588117014369	2
0	1563	2453.202108830005	1
0	1565	2453.422803269998	2
0	1568	2454.524789609149	3
0	1571	2461.088502400677	4
0	1574	2475.024217754281	5
0	1577	2477.795378007592	6
0	1580	2478.230216807616	5
0	1582	2480.195040021298	4
0	1584	2481.492631704671	3
0	1586	2486.302000525333	2
0	1588	2489.911664846834	3
0	1591	2490.318747523148	2
0	1593	2493.060756650929	1
0	1595	2503.363078351333	2
0	1598	2509.414578774962	1
0	1600	2528.352001747838	2
0	1603	2529.831455155951	3
0	1606	2532.476721254969	4
0	1609	2540.791250087146	5
0	1612	2542.184322666618	6
0	1615	2543.261855505915	5
0	1617	2544.166436974816	6
0	1620	2544.46443707267	5
0	1622	2553.040935303095	4
0	1624	2562.726776465595	5
0	1627	2571.074577067082	6
0	1630	2573.711484291012	5
0	1632	2573.932988983882	6
0	1635	2578.05913474581	5
0	1637	2582.900736013484	4
0	1639	2591.127677716449	3
0	1641	2592.981865871656	4
0	1644	2593.177573322649	3
0	1646	2600.105224116728	4
0	1649	2603.735663511677	3
0	1651	2607.392537818369	2
0	1653	2614.374298410028	3
0	1656	2614.873643929066	2
0	1658	2617.869082116714	1
0	1660	2621.069853653554	0
0	1662	2624.715424995784	1
0	1665	2630.193780701249	0
0	1667	2648.085733264315	1
0	1670	2652.077117416047	2
0	1673	2662.078398585256	3
0	1676	2664.394004019297	2
0	1678	2680.654431045034	3
0	1681	2680.771657754411	4
0	1684	2684.711621935754	3
0	1686	2688.317549189933	4
0	1689	2689.777133251445	3
0	1691	2690.085445592236	2
0	1693	2705.91961727834	3
0	1696	2709.698055226367	4
0	1699	2717.437799165913	3
0	1701	2721.135020190423	4
0	1704	2721.86639611849	3
0	1706	2732.9301342896	4
0	1709	2733.409193024756	3
0	1711	2733.718054375019	4
0	1714	2737.97908771094	5
0	1717	2738.955262771786	6
0	1720	2742.254290116465	5
0	1722	2746.065787013368	4
0	1724	2750.918320004387	3
0	1726	2754.330493927167	4
0	1729	2770.625223411452	3
0	1731	2781.868838744942	4
0	1734	2783.137609260255	5
0	1737	2785.333867734727	4
0	1739	2785.699731502533	3
0	1741	2791.924646541641	4
0	1744	2792.789324858737	3
0	1746	2793.107716277628	2
0	1748	2803.444107958637	1
0	1750	2803.711880718849	2
0	1753	2807.243971243931	3
0	1756	2810.2304938044	4
0	1759	2813.90823760201	5
0	1762	2814.112029894179	4
0	1764	2816.569498552891	5
0	1767	2825.940210412977	6
0	1770	2832.826883195507	7
0	1773	2839.645056138127	6
0	1775	2845.348535319139	5
0	1777	2848.591727964593	6
0	1780	2854.767736557122	7
0	1783	2855.672651609041	6
0	1785	2857.431511164226	7
0	1788	2857.505459704237	6
0	1790	2860.569148135971	5
0	1792	2875.44558726589	4
0	1794	2875.557068946871	5
0	1797	2877.040760708786	4
0	1799	2878.6567288468	5
0	1802	2879.693011739994	4
0	1804	2880.273550854382	5
0	1807	2881.127004056537	4
0	1809	2883.00238139624	5
0	1812	2886.533060849562	4
0	1814	2888.604145452538	3
0	1816	2890.099883308141	4
0	1819	2897.861626798352	5
0	1822	2898.837866312318	6
0	1825	2902.745765665486	5
0	1827	2906.895202042956	4
0	1829	2922.349880345922	3
0	1831	2945.18907642401	2
0	1833	2947.574275725227	3
0	1836	2952.21717249157	4
0	1839	2952.258905442127	5
0	1842	2957.306887967537	6
0	1845	2957.94304614881	5
0	1847	2958.948984158141	6
0	1850	2959.8773698419	5
0	1852	2963.589449526538	6
0	1855	2968.742481854873	7
0	1858	2974.91972773013	8
0	1860	2975.330305213814	9
0	1862	2982.288314626529	10
0	1864	2985.774772449277	9
0	1867	2989.254870861644	8
0	1870	2991.930021245417	7
0	1873	2999.15381172861	6
0	1875	3001.34552694981	5
0	1877	3004.116013224157	6
0	1880	3007.184902575785	7
0	1883	3009.243687571465	8
0	1885	3009.644379713075	7
0	1888	3013.923976973721	8
0	1890	3017.399723544966	7
0	1893	3018.44757972187	6
0	1895	3018.649717216092	5
0	1897	3032.063519836874	4
0	1899	3032.758346456682	5
0	1902	3033.752889194984	4
0	1904	3035.369940692342	3
0	1906	3042.150244584296	4
0	1909	3047.622183984023	5
0	1912	3057.617317882909	6
0	1915	3063.402971886667	5
0	1917	3075.380567513297	6
0	1920	3077.609541542771	7
0	1923	3080.400998921993	6
0	1925	3084.080029918398	5
0	1927	3090.628154000062	6
0	1930	3098.077795281199	7
0	1933	3098.552148701227	6
0	1935	3100.448598814029	7
0	1938	3112.073754631116	6
0	1940	3114.72358770489	5
0	1942	3115.796646176146	4
0	1944	3119.606855627118	5
0	1947	3121.655848320461	4
0	1949	3132.495446386364	3
0	1951	3138.572569456378	2
0	1953	3148.610335176755	3
0	1956	3150.942022220474	4
0	1959	3153.134388878267	5
0	1962	3154.893016078106	6
0	1965	3158.080179795836	5
0	1967	3165.808869685118	6
0	1970	3174.909505132515	7
0	1973	3177.26171162021	8
0	1975	3181.287996023565	7
0	1978	3184.382627601271	8
0	1980	3187.324088526393	7
0	1983	3190.164140732914	8
0	1985	3190.255147355568	7
0	1988	3191.760353403012	8
0	1990	3194.97692777355	9
0	1992	3195.919652433994	8
0	1995	3197.861187097138	9
0	1997	3198.986113547748	8
0	2000	3205.476026400108	9
0	2002	3205.979487698531	8
0	2005	3207.916674617266	9
0	2007	3209.077081518359	10
0	2009	3212.941177235424	9
0	2012	3214.340402209301	8
0	2015	3223.017175291672	9
0	2017	3225.122895553878	8
0	2020	3225.894765618283	9
0	2022	3227.00175670951	8
0	2025	3231.755323536532	7
0	2028	3235.623916178905	6
0	2030	3247.257167214553	5
0	2032	3250.496505364802	6
0	2035	3256.267103904066	7
0	2038	3257.031720405608	6
0	2040	3265.368641488784	7
0	2043	3268.513578359206	6
0	2045	3270.198288556641	5
0	2047	3275.386341784829	6
0	2050	3285.182875852678	5
0	2052	3285.784308205133	4
0	2054	3292.967366720578	3
0	2056	3294.686072830721	2
0	2058	3298.156039093351	3
0	2061	3300.646590978885	4
0	2064	3301.794721466888	3
0	2066	3301.878777264728	4
0	2069	3307.137155491097	3
0	2071	3310.052437280781	4
0	2074	3313.245821029727	5
0	2077	3321.247574373869	4
0	2079	3321.829754713386	5
0	2082	3332.643118797986	6
0	2085	3344.692264134596	7
0	2088	3346.192924726143	8
0	2090	3349.806324655104	7
0	2093	3351.330410649745	8
0	2095	3352.725668813596	7
0	2098	3357.461099787591	6
0	2100	3358.171486838529	7
0	2103	3359.433469838448	8
0	2105	3361.296590410139	7
0	2108	3362.297816042296	6
0	2110	3363.51835791879	5
0	2112	3372.058693803885	4
0	2114	3376.079453159638	5
0	2117	3380.123161566554	6
0	2120	3386.980890359658	5
0	2122	3393.269885585404	4
0	2124	3393.677213841971	3
0	2126	3394.239916564957	2
0	2128	3408.19206578045	1
0	2130	3411.446226307058	2
0	2133	3413.265774769243	1
0	2135	3420.168288001155	2
0	2138	3421.356723729257	3
0	2141	3422.331215213105	4
0	2144	3423.721498714767	5
0	2147	3424.922266921551	4
0	2149	3431.874730075611	3
0	2151	3440.071572780999	2
0	2153	3441.161796670142	3
0	2156	3446.846626651965	4
0	2159	3452.937257814087	3
0	2161	3467.586491646588	2
0	2163	3473.669220181225	1
0	2165	3490.035592393386	2
0	2168	3502.124482021939	1
0	2170	3512.148068910565	2
0	2173	3519.945461040623	3
0	2176	3523.556577242611	4
0	2179	3527.360300772998	3
0	2181	3532.808997749038	4
0	2184	3542.339686114794	5
0	2187	3547.953633587556	6
0	2190	3551.249848984897	5
0	2192	3553.078886897661	6
0	2195	3557.027703274786	5
0	2197	3565.9402388523	6
0	2200	3567.834258205314	7
0	2203	3577.291358853052	8
0	2205	3580.354490036066	7
0	2208	3590.102102913553	6
0	2210	3602.780835388556	7
0	2213	3607.861268761638	8
0	2215	3608.449033940506	7
0	2218	3608.782373775198	6
0	2220	3611.806441124105	7
0	2223	3617.024504531048	6
0	2225	3619.302647492917	7
0	2228	3625.215223958411	8
0	2230	3625.704707313375	7
0	2233	3626.553817840505	6
0	2235	3628.779747915462	5
0	2237	3636.911088600772	6
0	2240	3638.025200847078	5
0	2242	3639.887606758553	6
0	2245	3657.035044738495	7
0	2248	3657.254175435456	6
0	2250	3657.575004212193	7
0	2253	3658.678159876304	6
0	2255	3660.637918867309	7
0	2258	3670.5620880854	6
0	2260	3670.845676443784	5
0	2262	3681.602544983416	6
0	2265	3685.993034003011	7
0	2268	3688.181250221347	6
0	2270	3689.165003519893	5
0	2272	3696.099676896343	6
0	2275	3701.698139672881	7
0	2278	3705.068758496064	6
0	2280	3705.316345106863	5
0	2282	3722.468749906938	4
0	2284	3722.863479922021	5
0	2287	3732.198120361594	4
0	2289	3736.499503962199	3
0	2291	3748.994453102412	2
0	2293	3749.86257424245	3
0	2296	3751.437767747328	4
0	2299	3759.895571205146	5
0	2302	3764.640739067796	4
0	2304	3769.888340019587	3
0	2306	3774.017115537231	4
0	2309	3779.798583341219	3
0	2311	3781.769998570988	4
0	2314	3783.375796346247	3
0	2316	3792.668245626902	4
0	2319	3793.045363021337	3
0	2321	3796.19963046005	2
0	2323	3798.713966572991	3
0	2326	3799.156695865599	2
0	2328	3882.711744772208	3
0	2331	3887.222076613844	2
0	2333	3889.863840336121	1
0	2335	3892.549328212546	2
0	2338	3895.715818108194	3
0	2341	3902.845262653214	4
0	2344	3916.184938309409	5
0	2347	3923.802691300469	6
0	2350	3924.115098134544	5
0	2352	3928.086781727838	6
0	2355	3933.820263301515	7
0	2358	3936.434660535229	6
0	2360	3940.016994965752	5
0	2362	3940.884758138054	6
0	2365	3943.739990277144	7
0	2368	3946.653985437798	6
0	2370	3951.003018509213	5
0	2372	3958.821141934459	6
0	2375	3960.333998679363	5
0	2377	3965.581555859871	4
0	2379	3966.116439349806	5
0	2382	3975.683496667948	4
0	2384	3985.155990789911	3
0	2386	3985.223322868499	4
0	2389	3990.798012870561	5
0	2392	3991.578236949285	6
0	2395	3991.850311917559	7
0	2398	3991.962195386675	8
0	2400	3997.70693063705	7
0	2403	3999.335443680947	8
0	2405	4002.703367176326	7
0	2408	4002.758324771227	6
0	2410	4014.24127871999	7
0	2413	4016.102284588166	6
0	2415	4020.999545693836	5
0	2417	4021.001191772225	6
0	2420	4022.343791733383	5
0	2422	4028.779622464065	6
0	2425	4031.946333916211	5
0	2427	4043.672945985523	6
0	2430	4045.190130181091	7
0	2433	4046.610135568852	8
0	2435	4052.539925335769	7
0	2438	4052.743723824835	6
0	2440	4053.022470329851	7
0	2443	4053.022917099628	8
0	2445	4062.051348238674	7
0	2448	4062.545795855001	6
0	2450	4067.63982519784	5
0	2452	4073.23923744608	4
0	2454	4075.887926028156	5
0	2457	4076.44946263773	4
0	2459	4081.531100126685	5
0	2462	4082.798622451316	6
0	2465	4085.274331905422	7
0	2468	4085.690542324456	8
0	2470	4087.410388748002	9
0	2472	4089.594651688769	10
0	2474	4095.492712259356	9
0	2477	4099.972546957113	8
0	2480	4110.91491228506	9
0	2482	4111.382662535926	10
0	2484	4111.880608885756	9
0	2487	4113.873525539005	8
0	2490	4116.253858279359	9
0	2492	4116.416287749807	8
0	2495	4119.018783182349	7
0	2498	4123.243765152838	6
0	2500	4129.752649345272	5
0	2502	4131.206484899979	4
0	2504	4145.712424329474	3
0	2506	4146.735622816113	4
0	2509	4146.750883920025	3
0	2511	4157.730726421879	4
0	2514	4165.641402412106	5
0	2517	4168.347372658331	6
0	2520	4171.4905560649	7
0	2523	4173.470082924758	8
0	2525	4173.948218014449	9
0	2527	4187.411831284895	8
0	2530	4187.724072979559	9
0	2532	4190.343683692076	8
0	2535	4191.449462414344	7
0	2538	4193.100366017935	6
0	2540	4193.548325106183	5
0	2542	4195.630785683595	6
0	2545	4198.631941823827	7
0	2548	4198.885262872205	8
0	2550	4205.093613316765	9
0	2552	4205.55323684298	10
0	2554	4209.16646320164	9
0	2557	4216.938282239045	8
0	2560	4221.657100299345	7
0	2563	4223.826820627006	8
0	2565	4224.764987601863	7
0	2568	4227.656575393305	6
0	2570	4227.749141923443	5
0	2572	4230.96263040812	4
0	2574	4231.705044197925	3
0	2576	4232.081905403153	2
0	2578	4232.663094557221	3
0	2581	4238.440853001181	2
0	2583	4241.952956920229	1
0	2585	4245.128960030563	2
0	2588	4252.195458932496	3
0	2591	4262.248804041129	4
0	2594	4262.823023036119	5
0	2597	4264.63687229018	6
0	2600	4268.008630016692	5
0	2602	4274.75152053035	6
0	2605	4281.330678187795	7
0	2608	4282.487487000849	8
0	2610	4287.760287715062	7
0	2613	4288.296779716885	6
0	2615	4290.429596399835	5
0	2617	4290.55789834521	6
0	2620	4291.187866842821	7
0	2623	4292.894978230344	8
0	2625	4295.26381178155	9
0	2627	4296.046310407738	10
0	2629	4297.201426513698	11
0	2631	4298.910780142398	12
0	2633	4301.99206129592	13
0	2635	4302.256602265059	12
0	2638	4308.812241817058	11
0	2641	4309.503529371905	10
0	2644	4311.181927751592	11
0	2646	4315.894576125957	10
0	2649	4317.326612784538	11
0	2651	4320.128597453789	10
0	2654	4321.619906227682	9
0	2657	4322.08625702105	8
0	2660	4322.732102526029	9
0	2662	4330.807073449687	8
0	2665	4331.264504256961	9
0	2667	4332.633306795063	8
0	2670	4333.967573505199	9
0	2672	4334.714787694703	10
0	2674	4335.759019241049	11
0	2676	4337.423075645051	10
0	2679	4339.928379363925	11
0	2681	4343.995896971419	10
0	2684	4345.606669697994	11
0	2686	4350.23868753297	12
0	2688	4353.378851387689	11
0	2691	4361.741729982564	10
0	2694	4362.540196343928	11
0	2696	4368.677555866952	10
0	2699	4372.067499681591	11
0	2701	4377.073233846675	10
0	2704	4384.237544532256	11
0	2706	4387.33402752857	10
0	2709	4391.75219379596	11
0	2711	4392.393057166441	10
0	2714	4394.260871807299	11
0	2716	4413.331893916217	10
0	2719	4413.827657581185	9
0	2722	4414.432122887185	8
0	2725	4419.379156104579	9
0	2727	4419.393644260085	8
0	2730	4422.669803587441	9
0	2732	4431.611601513302	10
0	2734	4432.981484440517	9
0	2737	4437.501636862002	8
0	2740	4438.590213941084	7
0	2743	4450.871730726808	6
0	2745	4452.951659981705	5
0	2747	4453.194258773487	6
0	2750	4454.468456755881	5
0	2752	4456.671970250203	6
0	2755	4457.885376163229	5
0	2757	4460.880190678746	6
0	2760	4465.046527592699	7
0	2763	4467.862353990997	6
0	2765	4468.090920688136	7
0	2768	4469.772991262495	8
0	2770	4473.506953128479	7
0	2773	4474.269070694578	8
0	2775	4487.27584368568	7
0	2778	4490.597091584603	8
0	2780	4492.252299920766	7
0	2783	4493.833204647951	6
0	2785	4501.725763599092	7
0	2788	4508.11498178226	6
0	2790	4513.157722680959	5
0	2792	4514.482761535892	4
0	2794	4516.929087991545	5
0	2797	4518.269890550528	6
0	2800	4520.354238759632	7
0	2803	4521.731158782171	8
0	2805	4525.453392652481	9
0	2807	4526.243610646684	8
0	2810	4527.553791273547	7
0	2813	4527.57488429129	6
0	2815	4528.475136931399	5
0	2817	4540.155918144935	6
0	2820	4548.846076883223	5
0	2822	4549.436048842565	4
0	2824	4549.720254285626	3
0	2826	4560.560203875946	2
0	2828	4560.992056882465	1
0	2830	4575.273830041652	2
0	2833	4580.902570735615	1
0	2835	4581.195225738669	2
0	2838	4588.789013268242	3
0	2841	4600.378995234026	4
0	2844	4600.677337190524	3
0	2846	4601.075880708223	4
0	2849	4605.863683728392	5
0	2852	4605.910121017415	6
0	2855	4609.793699820035	7
0	2858	4614.332197218904	8
0	2860	4625.093457844172	9
0	2862	4626.359367970887	8
0	2865	4630.77170029514	7
0	2868	4636.008028409461	6
0	2870	4637.418487035088	5
0	2872	4647.239719463754	4
0	2874	4650.335838267722	3
0	2876	4651.582312371589	2
0	2878	4653.085736294567	1
0	2880	4668.786286809159	0
0	2882	4674.746640165427	1
0	2885	4677.526579515554	2
0	2888	4678.44893880463	1
0	2890	4682.771948018092	2
0	2893	4686.920325308763	3
0	2896	4690.112136257481	4
0	2899	4700.541646634051	3
0	2901	4704.927607805384	4
0	2904	4711.089678101579	5
0	2907	4713.974814407681	4
0	2909	4719.913561839895	5
0	2912	4720.741876443065	4
0	2914	4727.352942836949	3
0	2916	4736.300672746031	2
0	2918	4763.619441607393	3
0	2921	4767.351050885678	4
0	2924	4771.11609895909	5
0	2927	4784.705089141207	4
0	2929	4784.925818832881	3
0	2931	4788.88569880614	4
0	2934	4795.06589922734	5
0	2937	4799.325845400398	6
0	2940	4802.415992565298	7
0	2943	4810.089441445666	6
0	2945	4821.198011237	5
0	2947	4832.586384844429	4
0	2949	4833.586520860838	5
0	2952	4834.283937629121	6
0	2955	4835.360658706256	7
0	2958	4840.06089405427	8
0	2960	4847.183111438322	9
0	2962	4849.522728636986	8
0	2965	4849.538437335278	9
0	2967	4851.85760312936	10
0	2969	4853.709030995901	11
0	2971	4854.475720452166	10
0	2974	4863.380201647189	9
0	2977	4865.622497259115	8
0	2980	4868.696308777373	9
0	2982	4881.043878214785	10
0	2984	4882.825068167286	9
0	2987	4887.672076885024	8
0	2990	4889.237215365692	7
0	2993	4889.2933120352	8
0	2995	4890.122595542297	7
0	2998	4890.621607397923	8
0	3000	4890.982786720096	7
0	3003	4891.539457775617	6
0	3005	4909.688583866896	7
0	3008	4916.030997816965	6
0	3010	4920.329720257891	5
0	3012	4935.61784667543	4
0	3014	4940.573424154158	5
0	3017	4950.852675740124	6
0	3020	4956.462361574596	5
0	3022	4963.492740600412	4
0	3024	4966.285067580734	3
0	3026	4997.157922487993	2
0	3028	5009.077416014375	3
0	3031	5011.832078872955	4
0	3034	5012.895574378907	5
0	3037	5013.80199797432	4
0	3039	5014.562129263171	5
0	3042	5017.530763069301	4
0	3044	5029.381974897378	5
0	3047	5032.019076087041	4
0	3049	5036.44357169073	5
0	3052	5039.381355455344	4
0	3054	5049.471694448497	5
0	3057	5052.151994668179	6
0	3060	5052.809490224798	7
0	3063	5057.027424496416	6
0	3065	5058.595934530658	5
0	3067	5060.075999625076	4
0	3069	5063.264346147692	3
0	3071	5068.519249985967	2
0	3073	5072.071597016646	3
0	3076	5073.478299530037	2
0	3078	5085.59840035788	3
0	3081	5086.142161460988	4
0	3084	5087.939355979706	5
0	3087	5092.877286221522	4
0	3089	5097.44277431712	3
0	3091	5111.260692688103	2
0	3093	5122.668438415499	3
0	3096	5128.711410406076	4
0	3099	5128.95981698211	5
0	3102	5137.582441287909	4
0	3104	5139.621569230804	5
0	3107	5149.687467195156	6
0	3110	5151.6497236573	7
0	3113	5152.254474409139	8
0	3115	5153.696629402262	9
0	3117	5161.190700242547	10
0	3119	5161.773424493559	9
0	3122	5166.711367624164	10
0	3124	5169.371746079102	11
0	3126	5179.96013941762	10
0	3129	5184.782153881383	9
0	3132	5187.393035357683	8
0	3135	5199.635875219876	7
0	3138	5203.612689412741	6
0	3140	5205.639157757827	5
0	3142	5207.917003342877	6
0	3145	5215.926132723636	7
0	3148	5228.678266516825	6
0	3150	5229.970876241577	7
0	3153	5232.215457692075	8
0	3155	5233.270093103298	7
0	3158	5238.427596718327	6
0	3160	5242.845044318853	5
0	3162	5255.693931661408	6
0	3165	5256.422556044678	5
0	3167	5261.378655521704	6
0	3170	5262.318434371127	7
0	3173	5262.484074482111	6
0	3175	5274.98302828693	5
0	3177	5279.367981145252	6
0	3180	5282.814491786655	7
0	3183	5284.747191782759	6
0	3185	5290.666301475731	7
0	3188	5295.948883080851	8
0	3190	5296.398444687264	9
0	3192	5302.214016126861	10
0	3194	5302.527310965526	11
0	3196	5304.830893163032	10
0	3199	5307.918491811056	9
0	3202	5308.036771294414	10
0	3204	5309.275222464876	9
0	3207	5311.013897962475	10
0	3209	5314.943436388774	9
0	3212	5316.883487612056	8
0	3215	5318.593061228578	9
0	3217	5321.096163592585	8
0	3220	5324.324551572886	9
0	3222	5326.001686512026	10
0	3224	5328.639008408572	11
0	3226	5329.420861296481	12
0	3228	5337.230192475129	11
0	3231	5338.092469032984	12
0	3233	5343.378075908754	13
0	3235	5343.743400907856	12
0	3238	5347.992395746676	13
0	3240	5349.290432273603	12
0	3243	5367.032563367997	13
0	3245	5369.254671845979	14
0	3247	5370.979892332664	15
0	3249	5372.230713076731	16
0	3251	5372.870802346699	15
0	3254	5374.410694961177	14
0	3257	5376.085471319375	15
0	3259	5380.696063661117	14
0	3262	5382.623811947647	15
0	3264	5392.125092589872	14
0	3267	5396.134663109702	13
0	3270	5403.623890934028	12
0	3273	5404.646395604743	11
0	3276	5408.843022476262	10
0	3279	5413.588302527148	11
0	3281	5423.30856395812	10
0	3284	5432.964245045663	11
0	3286	5436.798269141699	10
0	3289	5437.100161146094	11
0	3291	5442.214063236628	10
0	3294	5442.484775601432	11
0	3296	5443.81616062065	12
0	3298	5445.521367728877	11
0	3301	5446.647145428098	12
0	3303	5450.615153412914	11
0	3306	5452.02953101838	12
0	3308	5456.202507143375	11
0	3311	5464.2569688638	10
0	3314	5467.794629016909	9
0	3317	5468.716545979416	8
0	3320	5474.886533073244	9
0	3322	5476.556326837869	8
0	3325	5477.845018598974	7
0	3328	5477.856253427786	8
0	3330	5480.943050509543	7
0	3333	5486.198559659014	6
0	3335	5502.524830474612	5
0	3337	5503.104309987389	4
0	3339	5506.936326661504	5
0	3342	5509.565278300198	6
0	3345	5510.205327003757	7
0	3348	5513.585588420782	8
0	3350	5514.41963853158	7
0	3353	5515.421728449048	6
0	3355	5515.768955206783	7
0	3358	5516.565121250278	6
0	3360	5518.466959120758	5
0	3362	5526.571309243862	6
0	3365	5526.765816004103	5
0	3367	5527.834329452684	6
0	3370	5531.928271243676	7
0	3373	5533.793130968378	8
0	3375	5534.950483521564	7
0	3378	5537.421062977597	8
0	3380	5538.257852762023	7
0	3383	5543.994107905547	8
0	3385	5545.358715783432	7
0	3388	5548.651881622265	6
0	3390	5548.654911682554	5
0	3392	5550.803355719069	4
0	3394	5552.60473693306	3
0	3396	5553.69924105551	2
0	3398	5563.553807939804	3
0	3401	5573.140187739328	2
0	3403	5575.35680220516	1
0	3405	5580.781681318769	2
0	3408	5588.813800590644	3
0	3411	5590.924104786502	2
0	3413	5593.934159157524	3
0	3416	5614.067178362678	4
0	3419	5614.415685571315	5
0	3422	5618.257027369675	4
0	3424	5621.869340790599	5
0	3427	5624.648379423579	6
0	3430	5631.672512028729	5
0	3432	5638.352565840948	4
0	3434	5646.189344727579	5
0	3437	5650.553788423655	6
0	3440	5656.777969542049	5
0	3442	5657.093747733037	4
0	3444	5658.497666675162	3
0	3446	5658.911793871717	4
0	3449	5660.086186646148	3
0	3451	5665.495044778163	4
0	3454	5675.089811688195	5
0	3457	5677.255236443854	4
0	3459	5677.380648449738	3
0	3461	5677.874173226004	4
0	3464	5679.289886338011	3
0	3466	5683.444641767169	4
0	3469	5686.58578846855	5
0	3472	5688.622909736408	4
0	3474	5690.924922226943	3
0	3476	5696.723464472455	2
0	3478	5698.98706325664	3
0	3481	5699.962362252476	2
0	3483	5704.326788497233	3
0	3486	5706.486241352562	4
0	3489	5713.060811979728	5
0	3492	5728.887225987123	6
0	3495	5732.487354542857	5
0	3497	5742.379453234068	6
0	3500	5744.243696138161	5
0	3502	5748.36155127216	4
0	3504	5751.443455710404	5
0	3507	5761.536224689397	4
0	3509	5766.605494525778	3
0	3511	5770.920104878311	4
0	3514	5771.516085104167	5
0	3517	5773.877235461234	4
0	3519	5777.495086205741	3
0	3521	5777.603651537306	4
0	3524	5778.156047128127	3
0	3526	5778.980070458183	2
0	3528	5783.149622236	3
0	3531	5787.25524676615	4
0	3534	5789.632378823522	3
0	3536	5789.925894126411	4
0	3539	5794.488462716864	3
0	3541	5801.757698397836	4
0	3544	5802.056479288045	5
0	3547	5802.188926727717	6
0	3550	5804.149014936882	5
0	3552	5807.223923553585	4
0	3554	5814.469336555238	5
0	3557	5822.944339709212	4
0	3559	5824.752198587111	5
0	3562	5825.294015301454	4
0	3564	5835.788082292566	5
0	3567	5838.350965639369	4
0	3569	5838.908420622024	3
0	3571	5844.497685048388	4
0	3574	5844.499219251489	3
0	3576	5850.691807380633	4
0	3579	5853.021611301039	3
0	3581	5863.573280041241	4
0	3584	5872.079358549996	3
0	3586	5874.340707068105	2
0	3588	5878.250493735255	1
0	3590	5885.763492976419	0
0	3592	5887.677633502768	1
0	3595	5889.231896560318	2
0	3598	5896.212262750699	1
0	3600	5898.037412113898	2
0	3603	5898.148678863544	3
0	3606	5901.083493023337	4
0	3609	5906.938164660149	5
0	3612	5907.169368802845	6
0	3615	5907.64228415734	7
0	3618	5908.615061185837	8
0	3620	5909.064428424823	7
0	3623	5913.896675554382	6
0	3625	5914.272603267811	7
0	3628	5914.649959500552	6
0	3630	5918.23669049946	7
0	3633	5921.42526518478	8
0	3635	5922.564238150371	9
0	3637	5931.496895718302	8
0	3640	5933.427873753477	7
0	3643	5933.488537627347	6
0	3645	5935.709817914525	5
0	3647	5936.050214660468	6
0	3650	5938.660835414647	5
0	3652	5944.474643977015	4
0	3654	5949.22230135567	5
0	3657	5963.722959777484	4
0	3659	5972.977179088412	3
0	3661	5976.123246352772	2
0	3663	5980.186283939999	1
0	3665	5981.377292364088	0
0	3667	5994.488473477925	1
0	3670	6001.292104509362	2
0	3673	6006.630170803652	3
0	3676	6011.465421475478	2
0	3678	6011.915667989182	3
0	3681	6015.801610670343	4
0	3684	6019.336543597515	5
0	3687	6019.730123288929	6
0	3690	6023.543222092813	5
0	3692	6027.646735309799	4
0	3694	6027.707606388413	3
0	3696	6030.064160746393	4
0	3699	6030.654884763497	5
0	3702	6045.84011137383	4
0	3704	6048.246776620668	5
0	3707	6050.263825309266	4
0	3709	6059.108252028461	5
0	3712	6060.315598868515	6
0	3715	6065.074351458569	5
0	3717	6073.757207983954	6
0	3720	6077.664606955459	5
0	3722	6079.134389246686	4
0	3724	6080.654543256291	5
0	3727	6081.270485070963	6
0	3730	6086.481386348079	7
0	3733	6087.796075465952	8
0	3735	6088.265383320948	9
0	3737	6092.170724722606	8
0	3740	6094.839466979951	9
0	3742	6096.167367716111	10
0	3744	6098.770089521409	11
0	3746	6105.560553474156	12
0	3748	6107.57219191334	11
0	3751	6110.113286886916	10
0	3754	6117.466596408142	9
0	3757	6119.250116302546	8
0	3760	6125.95732421131	7
0	3763	6134.289473778594	6
0	3765	6139.487596434222	5
0	3767	6140.327304387855	6
0	3770	6149.100180513313	7
0	3773	6152.443029973425	6
0	3775	6164.888516500068	5
0	3777	6167.980661746984	6
0	3780	6177.810041851689	5
0	3782	6182.506059098115	4
0	3784	6192.055857821058	5
0	3787	6193.803565417389	4
0	3789	6195.229498236707	3
0	3791	6208.45579742491	4
0	3794	6213.532807657066	3
0	3796	6213.88535327076	2
0	3798	6220.194513173764	3
0	3801	6224.474823254555	4
0	3804	6230.132530084745	5
0	3807	6233.446469439944	4
0	3809	6237.431127207217	3
0	3811	6247.99967890511	4
0	3814	6248.455962823793	3
0	3816	6249.987036683105	4
0	3819	6255.637426542056	5
0	3822	6256.878357980841	6
0	3825	6263.312124228812	5
0	3827	6264.49316606878	4
0	3829	6277.553576267524	5
0	3832	6280.176359191616	6
0	3835	6284.558472708039	7
0	3838	6297.205089542944	8
0	3840	6298.103358508623	9
0	3842	6306.676550352467	8
0	3845	6316.753815056376	7
0	3848	6317.010791887821	8
0	3850	6317.57347400985	7
0	3853	6318.005105880274	8
0	3855	6318.079396074913	7
0	3858	6318.908220103357	8
0	3860	6326.826844704682	9
0	3862	6332.130998143027	8
0	3865	6340.751290941673	7
0	3868	6344.218238868776	8
0	3870	6344.632513951123	7
0	3873	6348.411577186433	8
0	3875	6348.732840196588	7
0	3878	6352.600104911513	6
0	3880	6353.855672018179	7
0	3883	6355.666387141621	8
0	3885	6362.386481623717	7
0	3888	6366.145959443803	6
0	3890	6369.120790760246	5
0	3892	6372.479161073369	4
0	3894	6373.653270236784	3
0	3896	6379.660144482063	4
0	3899	6391.314902909987	5
0	3902	6400.589696713909	6
0	3905	6401.957180953188	5
0	3907	6409.210797033694	6
0	3910	6411.905109825012	7
0	3913	6419.571193654898	8
0	3915	6419.648217338259	7
0	3918	6420.734464195447	6
0	3920	6425.483444610509	7
0	3923	6433.790208551498	8
0	3925	6438.244902787024	9
0	3927	6441.364644096485	10
0	3929	6442.444450617345	9
0	3932	6443.346484548956	8
0	3935	6443.806038773437	7
0	3938	6452.336667783039	8
0	3940	6452.63104340025	9
0	3942	6455.99963052417	10
0	3944	6472.969737556107	11
0	3946	6478.995516036948	10
0	3949	6480.137731852133	11
0	3951	6480.637879237242	10
0	3954	6485.923860353826	11
0	3956	6489.816683550682	12
0	3958	6490.48258297998	13
0	3960	6493.932041541258	12
0	3963	6502.905507071096	11
0	3966	6509.761356460085	10
0	3969	6512.9713448977	11
0	3971	6513.485267992831	12
0	3973	6518.387736252323	11
0	3976	6524.04202597367	12
0	3978	6525.4056752142	11
0	3981	6532.635123689922	12
0	3983	6537.391865965664	13
0	3985	6540.625022551639	14
0	3987	6543.019667103865	15
0	3989	6543.459359205127	14
0	3992	6543.87459642067	15
0	3994	6544.000659033331	16
0	3996	6544.3468625437	15
0	3999	6549.676715732818	16
0	4001	6554.271792112467	15
0	4004	6555.599676824879	14
0	4007	6556.690458139114	13
0	4010	6564.843471537749	12
0	4013	6564.894420261043	11
0	4016	6565.711855684143	12
0	4018	6566.66232260392	13
0	4020	6567.854111429566	12
0	4023	6569.011828042409	13
0	4025	6569.141192428019	12
0	4028	6569.310143277734	13
0	4030	6572.09548615656	14
0	4032	6574.989354113187	15
0	4034	6582.324411558189	14
0	4037	6585.949345327767	13
0	4040	6590.073031853746	12
0	4043	6597.216513998442	11
0	4046	6603.382984916034	10
0	4049	6603.601619492295	9
0	4052	6605.96402548788	8
0	4055	6611.849526192836	9
0	4057	6615.122890497425	10
0	4059	6617.277600280382	9
0	4062	6621.310310754397	8
0	4065	6623.406727603432	9
0	4067	6634.447476808256	10
0	4069	6634.766341104721	9
0	4072	6637.285896916489	10
0	4074	6642.82170935366	11
0	4076	6643.659735969964	10
0	4079	6645.292611218412	9
0	4082	6646.125389307886	8
0	4085	6651.276164262929	7
0	4088	6651.310779850403	8
0	4090	6652.813539133697	7
0	4093	6655.546587722774	8
0	4095	6658.984568954482	9
0	4097	6660.164821451712	8
0	4100	6668.853033514842	9
0	4102	6677.945027829393	10
0	4104	6679.521110036776	11
0	4106	6680.364952636064	12
0	4108	6690.02575206215	11
0	4111	6694.560979240138	10
0	4114	6697.924370452575	11
0	4116	6698.588606741655	10
0	4119	6701.663156323503	9
0	4122	6702.367805995434	8
0	4125	6704.359952333979	7
0	4128	6716.046756641341	6
0	4130	6721.569449136482	5
0	4132	6723.547865739534	4
0	4134	6725.9439123948	5
0	4137	6731.667336673938	4
0	4139	6733.107209667156	5
0	4142	6734.249344434284	6
0	4145	6736.556135157034	5
0	4147	6736.868409256518	6
0	4150	6737.458054084109	7
0	4153	6739.385783056189	6
0	4155	6740.294131036853	7
0	4158	6741.76345570633	6
0	4160	6745.235869290344	5
0	4162	6751.2172487136	4
0	4164	6751.587859477622	3
0	4166	6754.321538647362	2
0	4168	6754.911918487629	3
0	4171	6760.535257135901	2
0	4173	6764.743457149755	1
0	4175	6800.123820944643	2
0	4178	6804.351863624145	3
0	4181	6805.824500658314	2
0	4183	6816.787494332855	1
0	4185	6824.995962772637	2
0	4188	6827.46622823148	3
0	4191	6829.891103286756	4
0	4194	6830.079341475697	5
0	4197	6833.33182204549	6
0	4200	6837.697957002937	7
0	4203	6843.035577181391	6
0	4205	6848.016398977054	7
0	4208	6848.754085464882	6
0	4210	6850.197482516203	5
0	4212	6853.718357811592	6
0	4215	6854.679604602355	7
0	4218	6855.433846810332	6
0	4220	6855.867634395979	7
0	4223	6863.749527503767	8
0	4225	6870.455034260524	9
0	4227	6877.008925103274	8
0	4230	6879.889589521612	9
0	4232	6888.555102852485	10
0	4234	6889.442318585754	11
0	4236	6890.443808934814	10
0	4239	6904.369594115149	9
0	4242	6909.209121925369	10
0	4244	6910.88799158385	9
0	4247	6915.680138481325	10
0	4249	6918.404927880454	11
0	4251	6920.552632725373	10
0	4254	6924.907586346445	11
0	4256	6925.680714798489	12
0	4258	6938.988545403771	11
0	4261	6941.305307056378	10
0	4264	6950.110684519209	9
0	4267	6953.484045596652	10
0	4269	6956.09000479717	9
0	4272	6960.822655201434	8
0	4275	6966.731326976616	9
0	4277	6967.274815995927	8
0	4280	6974.993685053237	9
0	4282	6980.198257449447	8
0	4285	6984.107028427556	7
0	4288	6989.579486987719	6
0	4290	6992.690437503854	7
0	4293	6996.55281872516	6
0	4295	7014.108235540981	5
0	4297	7022.030557691359	6
0	4300	7030.388597233498	7
0	4303	7033.749238524929	6
0	4305	7047.045180960735	7
0	4308	7048.518044474972	6
0	4310	7050.677509216056	5
0	4312	7060.53031466051	4
0	4314	7065.536116315315	3
0	4316	7084.407123504316	4
0	4319	7084.97721172464	3
0	4321	7093.462466394279	4
0	4324	7104.984321796179	5
0	4327	7114.731442516202	6
0	4330	7119.354270631889	7
0	4333	7121.698075260883	6
0	4335	7121.866639531547	7
0	4338	7122.1592124156	8
0	4340	7122.298900565775	7
0	4343	7123.490030452081	8
0	4345	7131.532140975565	7
0	4348	7133.62951388817	6
0	4350	7136.82341797021	5
0	4352	7143.990887503917	4
0	4354	7144.077930995661	3
0	4356	7156.129152032505	4
0	4359	7156.567578034864	5
0	4362	7160.213837803027	6
0	4365	7160.326513633347	5
0	4367	7170.249418488556	4
0	4369	7170.339128711919	5
0	4372	7173.718055286267	6
0	4375	7174.052936215687	5
0	4377	7178.139866244417	4
0	4379	7184.37676610742	5
0	4382	7185.645621480482	6
0	4385	7187.07405861162	7
0	4388	7188.714352220783	6
0	4390	7206.765170447864	5
0	4392	7208.932478259542	4
0	4394	7211.921100788168	5
0	4397	7214.591194995584	6
0	4400	7214.927920247526	5
0	4402	7215.710320887364	4
0	4404	7228.398890392306	5
0	4407	7228.576091574855	6
0	4410	7229.023162094357	5
0	4412	7236.410538492319	4
0	4414	7243.60313987393	5
0	4417	7244.765678307949	6
0	4420	7254.318979779898	7
0	4423	7257.038099856704	8
0	4425	7260.046181024819	7
0	4428	7260.811694445896	6
0	4430	7262.092234840214	7
0	4433	7269.096803627941	6
0	4435	7272.517157956755	5
0	4437	7277.143278980944	6
0	4440	7277.960310512206	7
0	4443	7282.65243675156	6
0	4445	7289.545467030443	5
0	4447	7291.70609983929	6
0	4450	7292.143446639989	5
0	4452	7293.008763756676	4
0	4454	7296.705825783654	5
0	4457	7304.478952770827	6
0	4460	7322.504525472938	5
0	4462	7325.430238862697	6
0	4465	7333.61758915206	7
0	4468	7336.048265152771	6
0	4470	7336.662812676745	7
0	4473	7339.724615690001	8
0	4475	7340.381118546888	7
0	4478	7342.681429354291	8
0	4480	7347.40809526502	7
0	4483	7347.905883385768	6
0	4485	7360.959994051529	5
0	4487	7362.486817414053	6
0	4490	7373.941980626579	5
0	4492	7375.551007615121	6
0	4495	7392.82668478697	5
0	4497	7394.720038096765	6
0	4500	7396.001442169243	5
0	4502	7396.231446511754	6
0	4505	7400.48231874523	5
0	4507	7404.141562170986	4
0	4509	7406.78098381128	3
0	4511	7407.02862405527	4
0	4514	7412.042596510392	3
0	4516	7412.044774348237	4
0	4519	7416.22581805884	3
0	4521	7419.175832870247	2
0	4523	7422.832808484633	3
0	4526	7423.044898685561	4
0	4529	7424.80064794183	5
0	4532	7430.774535966252	6
0	4535	7434.736791538203	7
0	4538	7435.319173685667	6
0	4540	7436.692123694978	7
0	4543	7437.390940679208	6
0	4545	7437.864818437436	5
0	4547	7440.400300506071	4
0	4549	7442.837614017665	5
0	4552	7448.335754929416	4
0	4554	7454.636525738523	3
0	4556	7456.272102366013	4
0	4559	7460.476650709178	3
0	4561	7460.889157331455	4
0	4564	7471.170706554738	5
0	4567	7472.538503816233	6
0	4570	7477.75768842478	5
0	4572	7478.462144921063	6
0	4575	7492.165228994586	7
0	4578	7494.931832271446	6
0	4580	7498.271850399596	7
0	4583	7502.159029494099	6
0	4585	7502.829251757367	7
0	4588	7507.520546511789	8
0	4590	7508.581614231106	7
0	4593	7512.61554284758	8
0	4595	7524.516989890591	9
0	4597	7542.098592655175	10
0	4599	7542.678471913214	11
0	4601	7543.474893486116	12
0	4603	7546.765401857504	11
0	4606	7553.92694639016	12
0	4608	7557.223610671735	11
0	4611	7562.473503848833	10
0	4614	7564.043540682927	9
0	4617	7564.855117736745	10
0	4619	7568.02942307274	11
0	4621	7572.5543377586	10
0	4624	7577.653749777035	9
0	4627	7579.58467134012	8
0	4630	7580.307860125838	9
0	4632	7580.664089790132	10
0	4634	7583.900272467956	9
0	4637	7586.771239052787	10
0	4639	7587.091279056193	11
0	4641	7587.666923634806	12
0	4643	7587.932001351566	13
0	4645	7590.879939467135	14
0	4647	7591.421828559406	15
0	4649	7593.861072738011	14
0	4652	7607.141842319113	15
0	4654	7609.049396011895	14
0	4657	7614.040541679585	13
0	4660	7618.905202668694	12
0	4663	7619.277409542267	13
0	4665	7620.760821559175	14
0	4667	7621.283010196907	13
0	4670	7626.262293902346	14
0	4672	7629.79761876457	13
0	4675	7630.377250725472	14
0	4677	7639.754118691005	13
0	4680	7640.486314329611	12
0	4683	7640.910308480456	13
0	4685	7643.46789426003	14
0	4687	7644.660619701464	15
0	4689	7646.270558061442	14
0	4692	7652.330740171219	13
0	4695	7652.619495749543	14
0	4697	7658.708843582265	15
0	4699	7659.145788953685	16
0	4701	7663.441404987072	15
0	4704	7667.915642577449	14
0	4707	7667.952018726682	13
0	4710	7671.071256414064	14
0	4712	7673.247516902694	13
0	4715	7677.36044380316	12
0	4718	7680.486767914095	11
0	4721	7683.548882157828	10
0	4724	7684.481140181885	9
0	4727	7685.074548641613	8
0	4730	7686.766064993272	9
0	4732	7691.701903966812	10
0	4734	7693.705366322698	11
0	4736	7697.534362140699	10
0	4739	7702.680492375096	11
0	4741	7704.122611214868	12
0	4743	7706.612425568	13
0	4745	7707.117342872969	12
0	4748	7708.024774080679	11
0	4751	7712.766883218643	10
0	4754	7716.370896613037	11
0	4756	7717.811923407723	12
0	4758	7719.023445457396	11
0	4761	7722.377974722964	10
0	4764	7723.560654663051	9
0	4767	7726.423141519905	8
0	4770	7731.484511456091	9
0	4772	7731.755867296322	8
0	4775	7732.504113132231	9
0	4777	7733.826616384879	8
0	4780	7734.987982167082	9
0	4782	7740.918400273918	8
0	4785	7741.380883318499	9
0	4787	7747.856437682078	8
0	4790	7747.962082303227	9
0	4792	7750.078040101886	8
0	4795	7754.555179503278	9
0	4797	7756.864922873996	8
0	4800	7763.977846206194	9
0	4802	7768.175905096521	8
0	4805	7768.618320178087	9
0	4807	7770.178113762194	10
0	4809	7772.841284474315	11
0	4811	7775.515964245731	12
0	4813	7779.137002120948	11
0	4816	7784.207263845741	10
0	4819	7789.600900025548	9
0	4822	7790.922685196611	10
0	4824	7794.785982952424	11
0	4826	7800.515226567959	12
0	4828	7813.029939272109	13
0	4830	7816.973061481638	12
0	4833	7817.696359742641	11
0	4836	7831.70752471559	10
0	4839	7832.710016306042	11
0	4841	7841.304444946338	10
0	4844	7846.427163432333	11
0	4846	7850.338968787879	10
0	4849	7850.845758550996	11
0	4851	7854.933477499303	10
0	4854	7856.144238038241	11
0	4856	7866.699892908774	12
0	4858	7869.207678426312	13
0	4860	7869.360652746342	12
0	4863	7872.516282651863	13
0	4865	7875.308111500267	14
0	4867	7880.745145098054	15
0	4869	7881.486477004676	14
0	4872	7883.288741276272	13
0	4875	7885.427906205188	14
0	4877	7888.967697639362	15
0	4879	7889.292620647698	16
0	4881	7890.087186480992	15
0	4884	7897.327847307289	16
0	4886	7898.829368368098	15
0	4889	7899.587308548985	14
0	4892	7902.742221487036	13
0	4895	7903.998158629394	12
0	4898	7904.699268706463	13
0	4900	7906.36983664453	14
0	4902	7916.321443973751	15
0	4904	7917.616628542322	16
0	4906	7923.124957106301	15
0	4909	7925.405486152528	16
0	4911	7945.594303849137	15
0	4914	7949.07110614964	14
0	4917	7955.20331449596	15
0	4919	7956.904610795742	16
0	4921	7959.777495173272	17
0	4923	7961.440051157437	16
0	4926	7963.684870555422	15
0	4929	7968.234777730159	16
0	4931	7970.893887511409	17
0	4933	7974.781168884729	18
0	4935	7975.897548271954	19
0	4937	7985.050033449584	18
0	4940	7986.170504299515	17
0	4943	7987.703196494137	16
0	4946	7988.453041383413	15
0	4949	7989.499428917965	16
0	4951	7989.940918633851	15
0	4954	7990.593359650511	14
0	4957	7991.871633196974	15
0	4959	7995.760779260807	14
0	4962	7999.181230252921	13
0	4965	8013.233434496302	14
0	4967	8015.377217321011	15
0	4969	8016.217128511982	14
0	4972	8017.748058353119	13
0	4975	8019.978986459362	12
0	4978	8029.013043943845	13
0	4980	8029.392111606124	14
0	4982	8034.647468854417	15
0	4984	8037.861836526895	14
0	4987	8038.550465920593	13
0	4990	8049.086443593701	12
0	4993	8050.670632394156	13
0	4995	8055.844325691129	14
0	4997	8058.771438447164	13
0	5000	8060.273520844805	14
0	5002	8060.611551680476	13
0	5005	8060.899938716424	14
0	5007	8061.440554964511	15
0	5009	8063.857384836828	16
0	5011	8068.777662319749	17
0	5013	8069.762240247207	16
0	5016	8073.640474293777	15
0	5019	8076.839057027042	16
0	5021	8077.103754007012	15
0	5024	8080.085635477342	14
0	5027	8082.458180542096	15
0	5029	8085.538384978445	14
0	5032	8085.955490392038	15
0	5034	8089.819937754955	14
0	5037	8090.976588564163	13
0	5040	8092.672992203888	14
0	5042	8092.836022465627	15
0	5044	8096.638277891459	16
0	5046	8097.526435140726	15
0	5049	8098.413634164421	14
0	5052	8103.063260751715	13
0	5055	8105.981593172441	14
0	5057	8107.041450913211	15
0	5059	8108.047321431328	16
0	5061	8108.848427246311	17
0	5063	8109.429973994205	16
0	5066	8113.859006690443	17
0	5068	8117.87777393538	18
0	5070	8118.41322677998	17
0	5073	8122.828875912624	16
0	5076	8131.815816388568	15
0	5079	8131.856298331629	14
0	5082	8134.668019186581	15
0	5084	8135.058659769559	14
0	5087	8135.683494178798	13
0	5090	8136.350113694984	12
0	5093	8137.367783542336	11
0	5096	8142.65452581515	10
0	5099	8144.407605862988	11
0	5101	8150.413596682434	10
0	5104	8154.321705423928	11
0	5106	8154.57979321972	10
0	5109	8161.823218870162	9
0	5112	8165.091811759641	8
0	5115	8167.670582536235	9
0	5117	8170.23211199491	8
0	5120	8180.496777946738	7
0	5123	8184.104760834009	6
0	5125	8202.606084972488	7
0	5128	8204.564298454628	8
0	5130	8205.523066203417	7
0	5133	8206.970170840277	6
0	5135	8209.964669828131	5
0	5137	8211.413295048587	4
0	5139	8214.988605391119	5
0	5142	8215.493573691289	6
0	5145	8219.019125918533	5
0	5147	8224.911277386075	6
0	5150	8226.46903930139	7
0	5153	8234.030173646901	6
0	5155	8238.277939090962	7
0	5158	8241.934259757764	8
0	5160	8249.159246343092	9
0	5162	8255.856151877918	8
0	5165	8260.026206854795	7
0	5168	8262.624405908292	6
0	5170	8272.734371788597	5
0	5172	8275.905873923596	6
0	5175	8276.716171631914	5
0	5177	8279.740876743317	6
0	5180	8281.468769345021	7
0	5183	8281.689499641327	6
0	5185	8282.975130745475	5
0	5187	8283.208097392039	6
0	5190	8283.861204252152	7
0	5193	8284.720050106738	6
0	5195	8285.053244147785	7
0	5198	8288.240895935339	8
0	5200	8292.649678952335	7
0	5203	8293.729147307886	6
0	5205	8300.982096001134	7
0	5208	8310.196731013982	6
0	5210	8311.049690918619	7
0	5213	8317.486358966746	8
0	5215	8317.722568742339	9
0	5217	8319.184189914365	10
0	5219	8321.10976899439	11
0	5221	8322.753627113921	10
0	5224	8323.548932532363	11
0	5226	8327.394641131194	10
0	5229	8337.454140342553	9
0	5232	8346.363240872368	10
0	5234	8358.077662548654	9
0	5237	8359.45100219636	8
0	5240	8363.527396076203	9
0	5242	8363.974925659753	8
0	5245	8376.516999463878	7
0	5248	8378.197867784337	6
0	5250	8381.75955571901	5
0	5252	8398.141895447957	4
0	5254	8399.033606971116	3
0	5256	8400.066853497179	4
0	5259	8401.912982457701	5
0	5262	8403.408797623606	6
0	5265	8404.777672536272	7
0	5268	8410.477595337598	8
0	5270	8421.751516457638	7
0	5273	8425.659045279384	6
0	5275	8425.988837342906	7
0	5278	8428.476806948925	6
0	5280	8432.003552265347	5
0	5282	8433.721722906263	6
0	5285	8437.68262289527	5
0	5287	8440.146339863505	6
0	5290	8443.975146371524	7
0	5293	8444.009989915325	6
0	5295	8444.502610489454	5
0	5297	8454.330940964208	4
0	5299	8456.661223127574	3
0	5301	8471.036407035114	4
0	5304	8480.873730521663	3
0	5306	8485.880176802553	4
0	5309	8486.103738401818	3
0	5311	8489.031799123601	4
0	5314	8498.924973918298	3
0	5316	8504.341075950874	4
0	5319	8505.322861161627	3
0	5321	8509.510344223707	2
0	5323	8511.146979686419	1
0	5325	8511.400198654625	2
0	5328	8519.942639472227	3
0	5331	8534.36913165259	4
0	5334	8541.189678244212	3
0	5336	8542.927757257182	4
0	5339	8562.00081535669	3
0	5341	8562.932775971026	4
0	5344	8564.656852489901	3
0	5346	8571.604751986841	4
0	5349	8572.876362030112	5
0	5352	8576.309503072719	6
0	5355	8583.338068329939	5
0	5357	8584.173302288861	4
0	5359	8584.386901455984	5
0	5362	8586.008885077787	4
0	5364	8589.514488829981	3
0	5366	8591.890197903756	2
0	5368	8592.684740202008	3
0	5371	8598.402205022403	4
0	5374	8609.397354209226	3
0	5376	8614.642472270668	2
0	5378	8617.675772233972	1
0	5380	8646.844473513048	2
0	5383	8658.093732378393	1
0	5385	8660.016955476797	2
0	5388	8662.494393975013	3
0	5391	8666.560881834552	2
0	5393	8666.640645307105	3
0	5396	8670.259052082836	2
0	5398	8673.325758224589	1
0	5400	8673.825286579689	2
0	5403	8677.465101786239	1
0	5405	8681.209295492294	2
0	5408	8693.777162045838	3
0	5411	8700.773009266048	2
0	5413	8717.142955116039	3
0	5416	8721.475755463992	2
0	5418	8733.351030301385	1
0	5420	8736.250969979938	2
0	5423	8737.931150710085	3
0	5426	8738.605794949231	2
0	5428	8745.894938117798	3
0	5431	8753.280672059556	4
0	5434	8755.50284824824	3
0	5436	8774.183764267734	4
0	5439	8775.62573361485	3
0	5441	8780.762088488939	4
0	5444	8810.559710025893	5
0	5447	8810.826822354397	4
0	5449	8813.578526037516	3
0	5451	8822.38899307654	4
0	5454	8830.118559538678	5
0	5457	8830.496592308252	4
0	5459	8831.850111297164	3
0	5461	8840.798475593055	2
0	5463	8844.224875728808	3
0	5466	8854.182289888682	2
0	5468	8856.38886222272	3
0	5471	8856.816349206942	4
0	5474	8857.385361691877	5
0	5477	8865.835582840071	6
0	5480	8870.586224107268	7
0	5483	8872.561205877274	6
0	5485	8873.070555311661	5
0	5487	8885.102170718737	6
0	5490	8885.738188927551	5
0	5492	8886.446617745347	6
0	5495	8895.745941459744	7
0	5498	8902.950540114093	6
0	5500	8903.779837811314	5
0	5502	8907.066851482365	6
0	5505	8912.550013542173	5
0	5507	8925.847873471731	6
0	5510	8925.993735145703	5
0	5512	8949.990375250036	4
0	5514	8951.376240466253	5
0	5517	8956.956720936358	6
0	5520	8958.892309109066	7
0	5523	8961.050733236715	6
0	5525	8962.653273212759	7
0	5528	8965.299471107773	8
0	5530	8968.646916407337	7
0	5533	8970.374016058495	8
0	5535	8971.01078997538	9
0	5537	8978.414667767745	8
0	5540	8982.934712560974	7
0	5543	8999.371772378248	6
0	5545	9000.282174560216	7
0	5548	9007.525745161523	6
0	5550	9009.203787201789	5
0	5552	9009.360241386198	4
0	5554	9021.58534976171	5
0	5557	9028.361936920686	4
0	5559	9032.792063156195	5
0	5562	9034.061524008303	6
0	5565	9036.057400582429	7
0	5568	9036.231511787676	8
0	5570	9038.295312632503	7
0	5573	9054.631196833487	8
0	5575	9054.875622903199	9
0	5577	9062.86530889544	8
0	5580	9068.454967425613	7
0	5583	9069.710847524217	6
0	5585	9070.48768772398	5
0	5587	9072.232656814237	4
0	5589	9080.894523841147	5
0	5592	9081.769632820679	6
0	5595	9083.602554439436	5
0	5597	9087.062438016463	4
0	5599	9091.014889814775	3
0	5601	9095.838501547151	2
0	5603	9096.771569065577	3
0	5606	9097.866170033725	4
0	5609	9098.4543583007	3
0	5611	9105.203899534726	4
0	5614	9106.557762992767	3
0	5616	9112.416650989383	4
0	5619	9113.392526923322	3
0	5621	9114.307106808113	4
0	5624	9129.244341452507	5
0	5627	9132.46386095623	4
0	5629	9133.683548083413	5
0	5632	9135.207006809821	4
0	5634	9142.214478999498	3
0	5636	9143.690182627911	4
0	5639	9144.43088762172	5
0	5642	9148.798269059815	6
0	5645	9150.483893133155	7
0	5648	9150.54214522266	6
0	5650	9152.843857718221	7
0	5653	9155.862284150229	8
0	5655	9158.849534478861	7
0	5658	9159.954475195468	6
0	5660	9161.007375974498	5
0	5662	9163.373368640178	4
0	5664	9167.305273427959	5
0	5667	9170.57619014833	6
0	5670	9173.556001028686	7
0	5673	9174.550205303708	8
0	5675	9177.793254725498	7
0	5678	9184.210071695544	8
0	5680	9184.653332018322	7
0	5683	9190.206501440106	6
0	5685	9192.132237101721	5
0	5687	9192.492140418966	4
0	5689	9193.572645122273	3
0	5691	9195.043563889761	4
0	5694	9198.306726281509	3
0	5696	9203.059300952292	2
0	5698	9215.122460719299	3
0	5701	9221.056195266716	4
0	5704	9223.916628013887	5
0	5707	9226.767033267038	6
0	5710	9237.295322406693	7
0	5713	9239.47392904493	8
0	5715	9245.652780923501	7
0	5718	9246.361220642412	6
0	5720	9247.494104711303	7
0	5723	9247.885594516465	8
0	5725	9248.241761731893	7
0	5728	9248.321127527016	8
0	5730	9249.198515724813	9
0	5732	9249.511174227242	8
0	5735	9250.412336615599	9
0	5737	9257.029338958663	8
0	5740	9261.175104472673	7
0	5743	9266.379621409774	6
0	5745	9277.078686551301	7
0	5748	9278.517287984982	6
0	5750	9284.647952746835	7
0	5753	9285.733640999067	6
0	5755	9286.526268806382	5
0	5757	9297.563212397082	6
0	5760	9306.605072355409	5
0	5762	9306.824756225596	4
0	5764	9310.24211837374	5
0	5767	9313.157439765889	4
0	5769	9313.964018747384	3
0	5771	9315.722358597532	2
0	5773	9319.963472767055	3
0	5776	9321.585424038566	4
0	5779	9321.99213626157	3
0	5781	9322.064561429692	4
0	5784	9325.11119828342	3
0	5786	9325.721083836039	2
0	5788	9325.873490290607	1
0	5790	9327.875034442592	0
0	5792	9330.206026889155	1
0	5795	9330.43476959057	2
0	5798	9347.474320038467	3
0	5801	9357.029711076299	2
0	5803	9372.04213750112	3
0	5806	9375.334790181127	2
0	5808	9376.01628542801	3
0	5811	9381.633886301217	4
0	5814	9388.126496329374	5
0	5817	9396.294621215535	4
0	5819	9400.884354994544	5
0	5822	9407.189151768194	4
0	5824	9407.252887178844	3
0	5826	9408.127767335973	4
0	5829	9410.449672142381	5
0	5832	9411.841011666041	6
0	5835	9420.461744715674	5
0	5837	9420.587529106757	4
0	5839	9421.244519964919	5
0	5842	9423.717179730345	6
0	5845	9423.782175633069	5
0	5847	9431.575146645407	6
0	5850	9432.240519276315	7
0	5853	9433.356287978203	8
0	5855	9434.210048160884	9
0	5857	9434.218329170403	8
0	5860	9442.296218938601	9
0	5862	9442.862321740577	8
0	5865	9446.14909410447	7
0	5868	9449.42885842616	6
0	5870	9453.807012827061	7
0	5873	9457.376001337454	6
0	5875	9459.385021812305	7
0	5878	9459.932819004801	6
0	5880	9460.707207446906	5
0	5882	9472.871465727281	4
0	5884	9477.222503553208	5
0	5887	9477.978439367906	4
0	5889	9478.18426977275	3
0	5891	9480.495726035178	4
0	5894	9481.31533273628	5
0	5897	9513.055277366112	6
0	5900	9521.365877863124	5
0	5902	9526.540180893506	4
0	5904	9533.797048481834	3
0	5906	9542.52190009733	4
0	5909	9551.63964259375	3
0	5911	9556.881916812385	4
0	5914	9558.736096769697	3
0	5916	9567.743069759185	4
0	5919	9577.968410314264	5
0	5922	9578.512969165542	4
0	5924	9579.094273036795	5
0	5927	9579.884334840289	4
0	5929	9580.190549398172	5
0	5932	9584.338854936773	4
0	5934	9585.794730228784	5
0	5937	9586.30093457958	6
0	5940	9589.739365884682	5
0	5942	9598.01551999517	4
0	5944	9603.178073994357	3
0	5946	9608.481057559221	2
0	5948	9613.6533100932	3
0	5951	9617.242743802371	4
0	5954	9626.486288824298	3
0	5956	9629.616057387011	2
0	5958	9632.99144723232	3
0	5961	9633.1693090277	4
0	5964	9633.541369240408	5
0	5967	9636.557372483285	6
0	5970	9644.787250397067	5
0	5972	9648.193313645944	6
0	5975	9655.717249811867	7
0	5978	9669.246402501327	6
0	5980	9674.831741627374	5
0	5982	9677.605173834448	4
0	5984	9687.073712250145	3
0	5986	9692.928055051015	4
0	5989	9703.962450572737	5
0	5992	9708.259736741498	6
0	5995	9708.301421305449	5
0	5997	9721.170432908033	4
0	5999	9722.355220735101	5
0	6002	9724.623908892204	4
0	6004	9735.664855214502	5
0	6007	9736.25379217632	6
0	6010	9740.131951992232	7
0	6013	9751.391823183435	6
0	6015	9753.872030317188	7
0	6018	9761.027161246239	8
0	6020	9762.553433838943	9
0	6022	9762.785771783619	8
0	6025	9762.815331885624	7
0	6028	9764.668455535637	6
0	6030	9770.850870792077	5
0	6032	9776.023203827946	6
0	6035	9783.590362712515	5
0	6037	9789.018571149686	4
0	6039	9790.716957512545	5
0	6042	9792.911482143848	6
0	6045	9796.879517022441	5
0	6047	9801.769651348581	6
0	6050	9802.84626654654	5
0	6052	9805.236516539595	4
0	6054	9805.969555283854	5
0	6057	9810.315116269276	4
0	6059	9814.89642116238	3
0	6061	9817.455852752955	4
0	6064	9823.909704369156	5
0	6067	9825.613973885112	6
0	6070	9826.119245216933	5
0	6072	9828.009025530695	6
0	6075	9831.5826528548	5
0	6077	9839.514325728181	4
0	6079	9840.517578126142	5
0	6082	9840.658021385966	6
0	6085	9843.988663510241	7
0	6088	9845.898534126452	8
0	6090	9851.79008548856	9
0	6092	9854.941280539779	8
0	6095	9855.650925890309	7
0	6098	9855.934887596102	6
0	6100	9862.049568448705	5
0	6102	9864.099661154757	6
0	6105	9866.508287262777	5
0	6107	9880.241614898081	4
0	6109	9884.270289360533	5
0	6112	9884.33410028373	6
0	6115	9886.091416966343	5
0	6117	9886.12488483335	6
0	6120	9888.624780963907	7
0	6123	9890.413546847891	8
0	6125	9894.062511510915	9
0	6127	9901.814398924449	8
0	6130	9905.339364229032	7
0	6133	9906.724525836211	8
0	6135	9910.923149417802	7
0	6138	9911.863711326886	6
0	6140	9915.938411313266	5
0	6142	9916.770840522005	4
0	6144	9922.605431305974	5
0	6147	9934.105068535148	6
0	6150	9938.647382305759	7
0	6153	9938.957661451948	8
0	6155	9939.46032931696	7
0	6158	9940.691956508197	6
0	6160	9943.323565120894	7
0	6163	9953.391935394025	8
0	6165	9963.320803741662	7
0	6168	9963.686992598639	6
0	6170	9965.519370974348	5
0	6172	9974.514327052508	4
0	6174	9976.987098845444	3
0	6176	9992.764873112998	2
0	6178	10009.82760245639	1
0	6180	10020.619506651125	2
0	6183	10024.051915110816	3
0	6186	10025.265225535819	2
0	6188	10030.976925061458	3
0	6191	10035.785130973507	2
0	6193	10035.827277048596	1
0	6195	10081.010865369316	2
0	6198	10085.017085161383	3
0	6201	10089.745592096556	2
0	6203	10098.881764889933	1
0	6205	10099.336790011665	2
0	6208	10102.481752484663	1
0	6210	10117.855718662549	2
0	6213	10119.255924890444	3
0	6216	10129.623074499806	2
0	6218	10133.105463599285	1
0	6220	10137.678013538029	2
0	6223	10142.113507182309	1
0	6225	10152.725566980014	2
0	6228	10162.648437882408	3
0	6231	10182.973774248464	2
0	6233	10184.867091684801	1
0	6235	10186.519446976052	2
0	6238	10191.908523034624	3
0	6241	10199.472852227659	2
0	6243	10201.657540841755	3
0	6246	10202.581517014306	4
0	6249	10205.819492861711	5
0	6252	10208.345417119059	4
0	6254	10208.573949515816	5
0	6257	10209.286202376143	6
0	6260	10209.323714755589	7
0	6263	10210.883014857142	6
0	6265	10213.95486116608	7
0	6268	10214.851483355826	6
0	6270	10218.814581955125	7
0	6273	10222.919295231597	8
0	6275	10223.927145513167	9
0	6277	10224.085157533802	10
0	6279	10231.327117975766	9
0	6282	10231.473502179733	10
0	6284	10235.674042840425	9
0	6287	10241.056294890808	8
0	6290	10241.180832494334	9
0	6292	10250.396235465783	8
0	6295	10252.6430438618	7
0	6298	10255.466146695042	6
0	6300	10262.080945783627	5
0	6302	10264.426215294303	4
0	6304	10267.223530310649	3
0	6306	10277.281627811042	4
0	6309	10283.105718881756	5
0	6312	10283.355553810365	4
0	6314	10290.020589883329	5
0	6317	10293.967182596968	4
0	6319	10298.065706343673	3
0	6321	10305.426002773661	4
0	6324	10306.445803631515	3
0	6326	10312.128806339083	2
0	6328	10329.010774260523	3
0	6331	10345.996153070245	4
0	6334	10348.695978306712	3
0	6336	10349.695100898734	4
0	6339	10354.627919997333	3
0	6341	10359.985211169777	4
0	6344	10364.08178058285	3
0	6346	10366.712527323506	4
0	6349	10376.971507716518	3
0	6351	10377.873074873114	2
0	6353	10378.31897583951	3
0	6356	10378.83116644113	4
0	6359	10379.864421471783	3
0	6361	10381.616520184816	4
0	6364	10386.140550609673	3
0	6366	10387.40954797099	4
0	6369	10388.713490797348	3
0	6371	10393.94463923387	4
0	6374	10407.116518299127	5
0	6377	10408.213413291715	6
0	6380	10423.219400972426	5
0	6382	10429.418719465344	6
0	6385	10436.91701555317	7
0	6388	10437.01673979265	6
0	6390	10442.797735255851	7
0	6393	10450.9612864928	6
0	6395	10462.532193354783	5
0	6397	10462.743267132533	4
0	6399	10463.437905218796	5
0	6402	10474.845636636692	6
0	6405	10479.158883947256	7
0	6408	10487.785851091133	6
0	6410	10492.375671284406	5
0	6412	10492.975168638788	4
0	6414	10496.513074273777	5
0	6417	10498.104413180692	4
0	6419	10498.580789446568	3
0	6421	10516.665537100014	4
0	6424	10530.648178676825	5
0	6427	10531.270194927983	6
0	6430	10531.953439973102	5
0	6432	10532.845802834305	4
0	6434	10534.142100103659	3
0	6436	10535.739341537295	4
0	6439	10537.580909622113	3
0	6441	10540.681082229417	4
0	6444	10542.539598027048	5
0	6447	10544.247478021392	6
0	6450	10545.86025522873	7
0	6453	10547.9123096834	8
0	6455	10550.069438841047	9
0	6457	10553.325079955861	10
0	6459	10553.546076591906	11
0	6461	10563.395825047795	12
0	6463	10564.190903960994	13
0	6465	10564.315511686033	14
0	6467	10567.432379459118	13
0	6470	10568.177269280985	12
0	6473	10576.454695576932	13
0	6475	10576.66446916695	14
0	6477	10583.688999342798	13
0	6480	10587.789504502111	14
0	6482	10592.158077909969	13
0	6485	10594.680116860824	14
0	6487	10595.471064580752	13
0	6490	10595.664618063688	12
0	6493	10608.502871781206	13
0	6495	10611.18609197369	12
0	6498	10613.050050761027	11
0	6501	10615.071056312315	12
0	6503	10615.27371474012	11
0	6506	10617.450308228439	12
0	6508	10620.023930591869	13
0	6510	10624.096081840774	14
0	6512	10626.119764681607	13
0	6515	10628.464064736662	12
0	6518	10630.91717300922	13
0	6520	10638.646304688506	12
0	6523	10640.356800393264	11
0	6526	10645.8125218231	12
0	6528	10646.411365501077	11
0	6531	10649.260452182874	10
0	6534	10650.023777801374	11
0	6536	10652.246284584409	10
0	6539	10654.130953476154	9
0	6542	10654.794895561095	10
0	6544	10660.246635422411	9
0	6547	10661.300092633735	8
0	6550	10667.885337233703	9
0	6552	10671.132916782248	10
0	6554	10672.882305793081	9
0	6557	10674.760497121156	8
0	6560	10683.931985924282	7
0	6563	10690.06348037232	8
0	6565	10690.29868457293	7
0	6568	10695.725278207339	8
0	6570	10696.854118574116	7
0	6573	10696.872273828344	6
0	6575	10700.820784771372	7
0	6578	10701.355430408448	8
0	6580	10702.618807739558	7
0	6583	10703.122639348694	6
0	6585	10705.192466322669	5
0	6587	10705.355280723557	4
0	6589	10738.642917660793	5
0	6592	10740.167903248277	4
0	6594	10740.894860354006	3
0	6596	10742.529866955474	2
0	6598	10755.656445085877	1
0	6600	10757.432865977087	0
0	6602	10776.886674444827	1
0	6605	10778.26160347055	2
0	6608	10781.370477197524	3
0	6611	10785.552465974509	2
0	6613	10791.607819796663	3
0	6616	10794.855607795523	2
0	6618	10798.214015518268	1
0	6620	10808.345315086589	2
0	6623	10817.397085029086	3
0	6626	10820.209255335061	4
0	6629	10822.334861861837	5
0	6632	10824.614756500535	4
0	6634	10828.173936972452	5
0	6637	10831.664206510513	4
0	6639	10834.344617103882	5
0	6642	10842.104249878766	6
0	6645	10844.864479240949	7
0	6648	10849.058101597072	8
0	6650	10853.984375690278	7
0	6653	10860.361261619967	8
0	6655	10862.359296778262	7
0	6658	10865.045047118787	8
0	6660	10866.374542474231	9
0	6662	10871.016876861617	10
0	6664	10872.141769337254	9
0	6667	10873.805821725155	8
0	6670	10876.111546177822	9
0	6672	10892.025244474054	8
0	6675	10893.206264800319	7
0	6678	10893.546155331057	6
0	6680	10896.65336394158	7
0	6683	10896.875443129602	8
0	6685	10902.955093044677	7
0	6688	10905.364908902053	6
0	6690	10917.30683718488	7
0	6693	10922.093360680932	6
0	6695	10923.990844108163	7
0	6698	10930.301736064944	6
0	6700	10935.289365923968	7
0	6703	10936.225372830786	8
0	6705	10938.031669215251	9
0	6707	10938.267964270771	10
0	6709	10939.978189002781	11
0	6711	10956.255413977586	10
0	6714	10956.295513724005	9
0	6717	10966.809305650477	8
0	6720	10969.445555887868	9
0	6722	10972.275009414396	10
0	6724	10977.458354696727	11
0	6726	10977.776263197353	10
0	6729	10978.38652187412	9
0	6732	10979.630925652862	8
0	6735	10990.64132476047	7
0	6738	10994.950915147695	8
0	6740	11004.642595575792	7
0	6743	11004.98182405268	6
0	6745	11009.1960224728	5
0	6747	11015.074805564382	6
0	6750	11016.749779816888	5
0	6752	11020.848577483777	4
0	6754	11030.583848842283	5
0	6757	11031.011895946188	4
0	6759	11034.215926265462	3
0	6761	11041.637425164761	4
0	6764	11052.232924101538	3
0	6766	11054.826705759591	2
0	6768	11059.181914968937	3
0	6771	11062.409294730003	4
0	6774	11067.407852750321	5
0	6777	11071.095485853641	4
0	6779	11075.246080252246	5
0	6782	11076.436480288974	4
0	6784	11077.958378915559	3
0	6786	11085.280017917671	2
0	6788	11085.702450063697	3
0	6791	11090.137415953462	4
0	6794	11093.001853513931	3
0	6796	11097.886534766714	2
0	6798	11097.978118877061	3
0	6801	11102.555899434647	4
0	6804	11106.449155304202	5
0	6807	11107.035944985541	6
0	6810	11121.703714558423	5
0	6812	11122.710008771482	4
0	6814	11124.790085142825	3
0	6816	11133.590170130473	4
0	6819	11146.998541889876	3
0	6821	11150.061010620794	4
0	6824	11158.455063030314	3
0	6826	11160.554076187546	2
0	6828	11160.787215336443	3
0	6831	11164.539266387779	4
0	6834	11166.131467439881	5
0	6837	11166.301524322674	6
0	6840	11171.943565187149	5
0	6842	11178.378071261903	4
0	6844	11180.384312134127	3
0	6846	11181.966575328002	2
0	6848	11185.445582079147	1
0	6850	11205.124793807804	2
0	6853	11206.671308000336	1
0	6855	11210.773479341375	2
0	6858	11214.771891390925	3
0	6861	11220.437169164464	4
0	6864	11221.232311139573	5
0	6867	11225.161285121399	4
0	6869	11234.176411840579	5
0	6872	11238.440689175651	4
0	6874	11239.462083219932	5
0	6877	11239.651837895252	4
0	6879	11242.237790576384	5
0	6882	11249.447587946391	6
0	6885	11252.439664433401	7
0	6888	11253.355581183375	8
0	6890	11253.489328034715	9
0	6892	11254.374075946338	8
0	6895	11266.980139477915	7
0	6898	11268.331955289842	8
0	6900	11268.384504530086	7
0	6903	11271.321158150639	6
0	6905	11271.65324802545	5
0	6907	11282.13114338339	6
0	6910	11286.697814793868	5
0	6912	11294.373436547296	4
0	6914	11297.195799735575	3
0	6916	11319.103737959255	4
0	6919	11321.945969303876	5
0	6922	11322.745367783675	4
0	6924	11325.738273279109	3
0	6926	11327.055643340447	4
0	6929	11335.790414100123	3
0	6931	11348.393202138618	4
0	6934	11351.148713322429	3
0	6936	11352.33648047527	4
0	6939	11364.034372895236	3
0	6941	11375.436157406582	4
0	6944	11381.658508004727	3
0	6946	11384.219540309926	4
0	6949	11403.229533417158	3
0	6951	11408.85449064376	4
0	6954	11416.063028656098	5
0	6957	11424.756711007288	4
0	6959	11425.548835485023	3
0	6961	11434.519091963115	2
0	6963	11436.350220613188	3
0	6966	11436.93538953401	4
0	6969	11437.932615109981	3
0	6971	11453.464158942825	4
0	6974	11464.371478249311	5
0	6977	11466.393220451662	6
0	6980	11468.513730497273	5
0	6982	11474.999535874563	6
0	6985	11475.056474147569	5
0	6987	11494.411054297589	6
0	6990	11496.685783645648	7
0	6993	11500.013190054731	6
0	6995	11500.356274452872	5
0	6997	11516.753923971493	4
0	6999	11521.78524422837	3
0	7001	11526.525765344138	4
0	7004	11537.456559638142	5
0	7007	11540.095030014926	4
0	7009	11553.483824287254	5
0	7012	11555.810945415539	6
0	7015	11557.097510966248	5
0	7017	11582.509269207217	4
0	7019	11584.297726272038	3
0	7021	11585.988646726547	4
0	7024	11593.109153258277	3
0	7026	11602.264070793163	2
0	7028	11629.167201513515	3
0	7031	11631.952204660513	4
0	7034	11633.066444875755	5
0	7037	11633.86999857834	4
0	7039	11635.174541429937	3
0	7041	11638.080953563239	4
0	7044	11639.068330840324	5
0	7047	11646.361436568084	4
0	7049	11653.824303544337	3
0	7051	11656.561010759454	2
0	7053	11666.979202722241	3
0	7056	11671.440852842107	2
0	7058	11676.918560939578	1
0	7060	11689.262338064032	2
0	7063	11695.597289019839	3
0	7066	11703.697713371399	4
0	7069	11705.138775942044	5
0	7072	11706.521258281217	6
0	7075	11709.008871869701	5
0	7077	11713.890540527257	4
0	7079	11714.998894181301	3
0	7081	11724.338763757985	4
0	7084	11724.351978374564	5
0	7087	11725.228629901213	4
0	7089	11729.701730935794	3
0	7091	11730.318915455009	4
0	7094	11730.484050463188	5
0	7097	11741.259334275518	4
0	7099	11742.5263717112	5
0	7102	11743.627317196956	4
0	7104	11765.560481596705	5
0	7107	11766.556322273418	4
0	7109	11768.139953566228	5
0	7112	11772.856632459669	6
0	7115	11778.060775612725	5
0	7117	11778.3956948761	4
0	7119	11783.090666910254	5
0	7122	11784.84317316492	6
0	7125	11785.687668194207	7
0	7128	11788.37066730031	8
0	7130	11792.041696430411	9
0	7132	11792.616366361871	8
0	7135	11798.654459447021	9
0	7137	11804.558005777206	8
0	7140	11807.259564468707	9
0	7142	11811.023409720962	10
0	7144	11814.260736349071	11
0	7146	11824.518838259787	10
0	7149	11828.142716630078	9
0	7152	11828.218940446589	10
0	7154	11832.784447993813	9
0	7157	11840.938692511483	10
0	7159	11841.825936566576	11
0	7161	11843.959293302782	12
0	7163	11843.994804706321	13
0	7165	11847.817662897524	14
0	7167	11848.816075202926	15
0	7169	11849.587798543473	14
0	7172	11850.202429094934	13
0	7175	11854.369133840807	14
0	7177	11872.588813629886	13
0	7180	11874.237027600454	14
0	7182	11875.049628123892	13
0	7185	11878.703100630411	12
0	7188	11879.464801367636	13
0	7190	11884.242188933105	14
0	7192	11891.096382066955	15
0	7194	11897.148407022382	14
0	7197	11898.433935214505	15
0	7199	11898.799069171196	14
0	7202	11902.813006871752	15
0	7204	11903.662359677909	14
0	7207	11909.261378277437	15
0	7209	11910.77964117286	16
0	7211	11912.166516284259	17
0	7213	11921.693481810526	16
0	7216	11925.167143010451	15
0	7219	11925.169872712059	16
0	7221	11925.410915040983	17
0	7223	11925.97681249618	18
0	7225	11932.245901102289	19
0	7227	11936.426330612481	20
0	7229	11936.478646632678	21
0	7231	11946.494851608309	20
0	7234	11965.08072882482	21
0	7236	11966.471645998309	22
0	7238	11968.948682373099	21
0	7241	11976.346617308547	22
0	7243	11977.1973349444	21
0	7246	11978.332581710371	20
0	7249	11979.081147385836	19
0	7252	11981.532633233019	18
0	7255	11983.597206317872	19
0	7257	11989.81137344086	20
0	7259	11994.316674156473	19
0	7262	11996.95880157289	20
0	7264	12007.121344521179	21
0	7266	12010.750060410626	20
0	7269	12014.933018737597	19
0	7272	12015.044013663174	20
0	7274	12018.694706917471	19
0	7277	12019.259059696594	18
0	7280	12022.394616647919	17
0	7283	12023.502445349661	16
0	7286	12028.203204421812	15
0	7289	12029.087422392741	14
0	7292	12036.257279488928	15
0	7294	12039.081974601485	14
0	7297	12040.319504259997	13
0	7300	12042.872485801625	14
0	7302	12051.539233209876	15
0	7304	12056.808574775513	14
0	7307	12059.998444756624	15
0	7309	12060.681438862114	14
0	7312	12061.340058081623	13
0	7315	12071.218777980569	14
0	7317	12072.822531170685	13
0	7320	12079.365687356698	14
0	7322	12085.195747706625	13
0	7325	12086.598075990772	12
0	7328	12090.348958678248	13
0	7330	12095.564958615605	14
0	7332	12096.038710280401	15
0	7334	12104.874524635007	16
0	7336	12108.08427588241	17
0	7338	12113.581711068998	16
0	7341	12117.640324358535	17
0	7343	12120.978873902461	16
0	7346	12124.351882975728	15
0	7349	12126.110500349927	16
0	7351	12127.614674336218	17
0	7353	12130.708650813469	16
0	7356	12133.403769368221	15
0	7359	12134.652043016963	16
0	7361	12144.186141033955	15
0	7364	12152.677650536041	14
0	7367	12157.906560336727	15
0	7369	12159.900795073496	14
0	7372	12161.073136157298	13
0	7375	12162.205307098427	12
0	7378	12162.585190255388	13
0	7380	12163.455607550634	14
0	7382	12165.714745098523	13
0	7385	12166.59092375609	12
0	7388	12171.713870558334	13
0	7390	12184.762795203258	12
0	7393	12186.643282911678	11
0	7396	12187.058399090689	10
0	7399	12194.73840164616	9
0	7402	12195.632317701913	10
0	7404	12200.045625097248	11
0	7406	12207.443237073085	12
0	7408	12209.635976598708	11
0	7411	12210.532251502582	12
0	7413	12224.494127241018	13
0	7415	12224.596675990634	14
0	7417	12230.219574774443	15
0	7419	12233.827919694933	16
0	7421	12235.124146874819	17
0	7423	12248.940002783979	16
0	7426	12249.256727795983	17
0	7428	12258.359798345211	16
0	7431	12263.465259907226	15
0	7434	12264.276525870901	16
0	7436	12267.239903165553	17
0	7438	12268.16972906031	16
0	7441	12271.727670414623	15
0	7444	12272.162563214853	14
0	7447	12276.38034765178	13
0	7450	12279.187486161975	14
0	7452	12280.122170526153	15
0	7454	12283.372180431547	14
0	7457	12283.79544209116	13
0	7460	12287.980117335531	12
0	7463	12291.681154157916	13
0	7465	12292.54484599163	12
0	7468	12299.445023830497	13
0	7470	12300.821127043883	14
0	7472	12305.865108051153	13
0	7475	12306.741857620082	12
0	7478	12307.679521560152	13
0	7480	12307.686300248157	14
0	7482	12311.116673068435	15
0	7484	12319.244546230866	16
0	7486	12321.986892674831	15
0	7489	12326.558817231547	16
0	7491	12334.788249136827	15
0	7494	12335.619294724686	14
0	7497	12336.600975426421	13
0	7500	12340.864748687418	12
0	7503	12341.660388035267	11
0	7506	12345.237413717402	10
0	7509	12348.465109656455	9
0	7512	12350.188573851788	8
0	7515	12350.25272437397	9
0	7517	12353.644186269841	10
0	7519	12357.325046546028	9
0	7522	12357.435244626923	8
0	7525	12365.333094073728	9
0	7527	12365.498208547708	10
0	7529	12371.300850137973	11
0	7531	12373.280306077509	12
0	7533	12373.839921416576	11
0	7536	12375.625796281665	12
0	7538	12375.93281534672	11
0	7541	12377.171371852158	10
0	7544	12383.532394628714	9
0	7547	12385.528056425952	10
0	7549	12385.660195088176	9
0	7552	12388.950260241379	8
0	7555	12397.521306780896	7
0	7558	12398.039579052128	6
0	7560	12400.926304724979	7
0	7563	12401.467427687974	6
0	7565	12405.505272747322	7
0	7568	12418.593212055124	6
0	7570	12419.170543848858	7
0	7573	12428.461042383663	6
0	7575	12437.740813000991	7
0	7578	12440.185082813531	6
0	7580	12443.956979147818	7
0	7583	12444.345025663135	6
0	7585	12444.371165107575	5
0	7587	12448.84878922	6
0	7590	12452.203460983297	7
0	7593	12456.408537748796	8
0	7595	12458.484389862027	7
0	7598	12461.255263798533	6
0	7600	12465.20681902128	7
0	7603	12469.355873567214	6
0	7605	12471.160807080495	7
0	7608	12471.479461739573	6
0	7610	12474.162283654191	5
0	7612	12476.724780987049	6
0	7615	12480.426437497988	7
0	7618	12485.363526381576	8
0	7620	12488.679607954633	9
0	7622	12489.648074170002	10
0	7624	12492.766401782791	9
0	7627	12492.946958953468	10
0	7629	12493.152210673649	9
0	7632	12495.999245121499	8
0	7635	12503.171808795333	7
0	7638	12508.301459526492	8
0	7640	12509.453449317488	7
0	7643	12515.596033257741	8
0	7645	12521.627611271609	7
0	7648	12523.983839516801	8
0	7650	12525.735369071662	7
0	7653	12535.359220737959	8
0	7655	12535.777035607377	9
0	7657	12542.693826332955	8
0	7660	12543.693370136976	7
0	7663	12543.759253909562	8
0	7665	12550.061647097966	9
0	7667	12551.890975499213	8
0	7670	12551.903219308883	7
0	7673	12555.357343595164	6
0	7675	12559.851225758367	5
0	7677	12568.364048798818	6
0	7680	12575.614642298704	7
0	7683	12579.192614475443	8
0	7685	12579.978333717215	7
0	7688	12582.114515600002	8
0	7690	12589.963912244856	9
0	7692	12607.584881473296	8
0	7695	12611.730553435675	7
0	7698	12614.322408906604	6
0	7700	12615.333846060423	5
0	7702	12618.683307653769	6
0	7705	12619.575495545748	7
0	7708	12622.176229429581	8
0	7710	12630.215060640854	9
0	7712	12637.384701722946	8
0	7715	12645.209127654798	9
0	7717	12645.835228694258	8
0	7720	12646.065743019523	7
0	7723	12646.834354827649	6
0	7725	12648.395842788706	7
0	7728	12649.733766870986	6
0	7730	12651.736286478751	5
0	7732	12656.520753494848	6
0	7735	12657.937293838949	5
0	7737	12672.645696602197	4
0	7739	12688.915248813959	3
0	7741	12689.376932947859	2
0	7743	12690.890577814128	3
0	7746	12693.939485453347	2
0	7748	12693.990451666576	3
0	7751	12699.504100373672	2
0	7753	12703.845657170988	1
0	7755	12709.27464173711	2
0	7758	12719.804161723269	3
0	7761	12725.656434642881	2
0	7763	12730.068589454427	3
0	7766	12731.915347880764	4
0	7769	12734.036264554056	5
0	7772	12734.64108124355	4
0	7774	12736.059869901838	3
0	7776	12736.992704137961	2
0	7778	12747.055600886431	3
0	7781	12755.137636390026	2
0	7783	12759.790321910389	3
0	7786	12760.666195170703	4
0	7789	12760.764774153813	5
0	7792	12761.99922000009	6
0	7795	12766.673257565572	5
0	7797	12771.393772114517	6
0	7800	12774.712319015135	5
0	7802	12775.707116067649	6
0	7805	12778.613668397704	7
0	7808	12780.630772725157	6
0	7810	12782.686138164858	5
0	7812	12783.708026773184	4
0	7814	12798.488124994463	5
0	7817	12799.349995116678	4
0	7819	12813.033319030632	5
0	7822	12833.22221083366	6
0	7825	12835.173514389688	5
0	7827	12836.49617942899	6
0	7830	12838.922069964874	5
0	7832	12841.285580344693	4
0	7834	12846.898264240606	5
0	7837	12851.892648956905	6
0	7840	12852.902174726621	5
0	7842	12855.224792274708	6
0	7845	12864.810642596763	5
0	7847	12865.471955289247	4
0	7849	12873.026060602147	3
0	7851	12882.048195706126	4
0	7854	12883.170934843875	5
0	7857	12886.622705285365	4
0	7859	12890.649284173708	3
0	7861	12891.369980036686	2
0	7863	12897.638233345444	3
0	7866	12902.998747375973	4
0	7869	12906.682921248811	5
0	7872	12908.980300553904	6
0	7875	12915.32602829145	7
0	7878	12916.741773401281	8
0	7880	12921.279992355361	7
0	7883	12921.490857945578	8
0	7885	12925.61829168105	9
0	7887	12929.859125806949	8
0	7890	12931.259790547066	7
0	7893	12934.433633446358	8
0	7895	12934.665517894544	7
0	7898	12935.52718494324	6
0	7900	12936.437543959403	5
0	7902	12937.271570158189	6
0	7905	12939.722153434788	5
0	7907	12940.858577847744	4
0	7909	12943.886631536847	5
0	7912	12944.252811878871	6
0	7915	12945.2725352607	5
0	7917	12949.20138533186	6
0	7920	12949.307118051337	7
0	7923	12951.499118356872	6
0	7925	12952.284206267697	5
0	7927	12958.44876554487	4
0	7929	12960.945874884751	5
0	7932	12961.223125663292	6
0	7935	12977.739359000081	5
0	7937	12982.014698482535	6
0	7940	12984.952480759247	7
0	7943	12992.08653646819	6
0	7945	12994.080975181179	5
0	7947	13001.191971489518	6
0	7950	13002.458566281578	7
0	7953	13003.472884197576	8
0	7955	13015.128058818901	9
0	7957	13030.322192771301	8
0	7960	13045.652007725547	7
0	7963	13048.236630901294	6
0	7965	13051.24252146764	7
0	7968	13054.332465278185	8
0	7970	13054.426607767779	7
0	7973	13054.895552968048	8
0	7975	13057.790802909512	9
0	7977	13058.68880735745	10
0	7979	13060.643933110307	11
0	7981	13064.836300823228	10
0	7984	13070.541022398782	11
0	7986	13076.743007611492	12
0	7988	13078.862533024845	13
0	7990	13082.682915861303	12
0	7993	13084.444626627688	11
0	7996	13093.524007057627	12
0	7998	13096.762432112803	11
0	8001	13099.419174700752	10
0	8004	13101.196361860592	11
0	8006	13104.048233710522	12
0	8008	13104.129940182171	13
0	8010	13108.299910243261	12
0	8013	13111.090197073967	11
0	8016	13111.277265516657	10
0	8019	13111.77706142666	11
0	8021	13114.803207628641	12
[...]
1	7037	11633.86999857834	0
1	7039	11635.174541429937	0
1	7041	11638.080953563239	0
1	7044	11639.068330840324	0
1	7047	11646.361436568084	0
1	7049	11653.824303544337	0
1	7051	11656.561010759454	0
1	7053	11666.979202722241	0
1	7056	11671.440852842107	0
1	7058	11676.918560939578	0
1	7060	11689.262338064032	0
1	7063	11695.597289019839	0
1	7066	11703.697713371399	0
1	7069	11705.138775942044	0
1	7072	11706.521258281217	0
1	7075	11709.008871869701	0
1	7077	11713.890540527257	0
1	7079	11714.998894181301	0
1	7081	11724.338763757985	0
1	7084	11724.351978374564	0
1	7087	11725.228629901213	0
1	7089	11729.701730935794	0
1	7091	11730.318915455009	0
1	7094	11730.484050463188	0
1	7097	11741.259334275518	0
1	7099	11742.5263717112	0
1	7102	11743.627317196956	0
1	7104	11765.560481596705	0
1	7107	11766.556322273418	0
1	7109	11768.139953566228	0
1	7112	11772.856632459669	0
1	7115	11778.060775612725	0
1	7117	11778.3956948761	0
1	7119	11783.090666910254	0
1	7122	11784.84317316492	0
1	7125	11785.687668194207	0
1	7128	11788.37066730031	1
1	7130	11792.041696430411	2
1	7132	11792.616366361871	1
1	7135	11798.654459447021	2
1	7137	11804.558005777206	1
1	7140	11807.259564468707	2
1	7142	11811.023409720962	3
1	7144	11814.260736349071	4
1	7146	11824.518838259787	3
1	7149	11828.142716630078	2
1	7152	11828.218940446589	3
1	7154	11832.784447993813	2
1	7157	11840.938692511483	3
1	7159	11841.825936566576	4
1	7161	11843.959293302782	5
1	7163	11843.994804706321	6
1	7165	11847.817662897524	7
1	7167	11848.816075202926	8
1	7169	11849.587798543473	7
1	7172	11850.202429094934	6
1	7175	11854.369133840807	7
1	7177	11872.588813629886	6
1	7180	11874.237027600454	7
1	7182	11875.049628123892	6
1	7185	11878.703100630411	5
1	7188	11879.464801367636	6
1	7190	11884.242188933105	7
1	7192	11891.096382066955	8
1	7194	11897.148407022382	7
1	7197	11898.433935214505	8
1	7199	11898.799069171196	7
1	7202	11902.813006871752	8
1	7204	11903.662359677909	7
1	7207	11909.261378277437	8
1	7209	11910.77964117286	9
1	7211	11912.166516284259	10
1	7213	11921.693481810526	9
1	7216	11925.167143010451	8
1	7219	11925.169872712059	9
1	7221	11925.410915040983	10
1	7223	11925.97681249618	11
1	7225	11932.245901102289	12
1	7227	11936.426330612481	13
1	7229	11936.478646632678	14
1	7231	11946.494851608309	13
1	7234	11965.08072882482	14
1	7236	11966.471645998309	15
1	7238	11968.948682373099	14
1	7241	11976.346617308547	15
1	7243	11977.1973349444	14
1	7246	11978.332581710371	13
1	7249	11979.081147385836	12
1	7252	11981.532633233019	11
1	7255	11983.597206317872	12
1	7257	11989.81137344086	13
1	7259	11994.316674156473	12
1	7262	11996.95880157289	13
1	7264	12007.121344521179	14
1	7266	12010.750060410626	13
1	7269	12014.933018737597	12
1	7272	12015.044013663174	13
1	7274	12018.694706917471	12
1	7277	12019.259059696594	11
1	7280	12022.394616647919	10
1	7283	12023.502445349661	9
1	7286	12028.203204421812	8
1	7289	12029.087422392741	7
1	7292	12036.257279488928	8
1	7294	12039.081974601485	7
1	7297	12040.319504259997	6
1	7300	12042.872485801625	7
1	7302	12051.539233209876	8
1	7304	12056.808574775513	7
1	7307	12059.998444756624	8
1	7309	12060.681438862114	7
1	7312	12061.340058081623	6
1	7315	12071.218777980569	7
1	7317	12072.822531170685	6
1	7320	12079.365687356698	7
1	7322	12085.195747706625	6
1	7325	12086.598075990772	5
1	7328	12090.348958678248	6
1	7330	12095.564958615605	7
1	7332	12096.038710280401	8
1	7334	12104.874524635007	9
1	7336	12108.08427588241	10
1	7338	12113.581711068998	9
1	7341	12117.640324358535	10
1	7343	12120.978873902461	9
1	7346	12124.351882975728	8
1	7349	12126.110500349927	9
1	7351	12127.614674336218	10
1	7353	12130.708650813469	9
1	7356	12133.403769368221	8
1	7359	12134.652043016963	9
1	7361	12144.186141033955	8
1	7364	12152.677650536041	7
1	7367	12157.906560336727	8
1	7369	12159.900795073496	7
1	7372	12161.073136157298	6
1	7375	12162.205307098427	5
1	7378	12162.585190255388	6
1	7380	12163.455607550634	7
1	7382	12165.714745098523	6
1	7385	12166.59092375609	5
1	7388	12171.713870558334	6
1	7390	12184.762795203258	5
1	7393	12186.643282911678	4
1	7396	12187.058399090689	3
1	7399	12194.73840164616	2
1	7402	12195.632317701913	3
1	7404	12200.045625097248	4
1	7406	12207.443237073085	5
1	7408	12209.635976598708	4
1	7411	12210.532251502582	5
1	7413	12224.494127241018	6
1	7415	12224.596675990634	7
1	7417	12230.219574774443	8
1	7419	12233.827919694933	9
1	7421	12235.124146874819	10
1	7423	12248.940002783979	9
1	7426	12249.256727795983	10
1	7428	12258.359798345211	9
1	7431	12263.465259907226	8
1	7434	12264.276525870901	9
1	7436	12267.239903165553	10
1	7438	12268.16972906031	9
1	7441	12271.727670414623	8
1	7444	12272.162563214853	7
1	7447	12276.38034765178	6
1	7450	12279.187486161975	7
1	7452	12280.122170526153	8
1	7454	12283.372180431547	7
1	7457	12283.79544209116	6
1	7460	12287.980117335531	5
1	7463	12291.681154157916	6
1	7465	12292.54484599163	5
1	7468	12299.445023830497	6
1	7470	12300.821127043883	7
1	7472	12305.865108051153	6
1	7475	12306.741857620082	5
1	7478	12307.679521560152	6
1	7480	12307.686300248157	7
1	7482	12311.116673068435	8
1	7484	12319.244546230866	9
1	7486	12321.986892674831	8
1	7489	12326.558817231547	9
1	7491	12334.788249136827	8
1	7494	12335.619294724686	7
1	7497	12336.600975426421	6
1	7500	12340.864748687418	5
1	7503	12341.660388035267	4
1	7506	12345.237413717402	3
1	7509	12348.465109656455	2
1	7512	12350.188573851788	1
1	7515	12350.25272437397	2
1	7517	12353.644186269841	3
1	7519	12357.325046546028	2
1	7522	12357.435244626923	1
1	7525	12365.333094073728	2
1	7527	12365.498208547708	3
1	7529	12371.300850137973	4
1	7531	12373.280306077509	5
1	7533	12373.839921416576	4
1	7536	12375.625796281665	5
1	7538	12375.93281534672	4
1	7541	12377.171371852158	3
1	7544	12383.532394628714	2
1	7547	12385.528056425952	3
1	7549	12385.660195088176	2
1	7552	12388.950260241379	1
1	7555	12397.521306780896	0
1	7558	12398.039579052128	0
1	7560	12400.926304724979	0
1	7563	12401.467427687974	0
1	7565	12405.505272747322	0
1	7568	12418.593212055124	0
1	7570	12419.170543848858	0
1	7573	12428.461042383663	0
1	7575	12437.740813000991	0
1	7578	12440.185082813531	0
1	7580	12443.956979147818	0
1	7583	12444.345025663135	0
1	7585	12444.371165107575	0
1	7587	12448.84878922	0
1	7590	12452.203460983297	0
1	7593	12456.408537748796	1
1	7595	12458.484389862027	0
1	7598	12461.255263798533	0
1	7600	12465.20681902128	0
1	7603	12469.355873567214	0
1	7605	12471.160807080495	0
1	7608	12471.479461739573	0
1	7610	12474.162283654191	0
1	7612	12476.724780987049	0
1	7615	12480.426437497988	0
1	7618	12485.363526381576	1
1	7620	12488.679607954633	2
1	7622	12489.648074170002	3
1	7624	12492.766401782791	2
1	7627	12492.946958953468	3
1	7629	12493.152210673649	2
1	7632	12495.999245121499	1
1	7635	12503.171808795333	0
1	7638	12508.301459526492	1
1	7640	12509.453449317488	0
1	7643	12515.596033257741	1
1	7645	12521.627611271609	0
1	7648	12523.983839516801	1
1	7650	12525.735369071662	0
1	7653	12535.359220737959	1
1	7655	12535.777035607377	2
1	7657	12542.693826332955	1
1	7660	12543.693370136976	0
1	7663	12543.759253909562	1
1	7665	12550.061647097966	2
1	7667	12551.890975499213	1
1	7670	12551.903219308883	0
1	7673	12555.357343595164	0
1	7675	12559.851225758367	0
1	7677	12568.364048798818	0
1	7680	12575.614642298704	0
1	7683	12579.192614475443	1
1	7685	12579.978333717215	0
1	7688	12582.114515600002	1
1	7690	12589.963912244856	2
1	7692	12607.584881473296	1
1	7695	12611.730553435675	0
1	7698	12614.322408906604	0
1	7700	12615.333846060423	0
1	7702	12618.683307653769	0
1	7705	12619.575495545748	0
1	7708	12622.176229429581	1
1	7710	12630.215060640854	2
1	7712	12637.384701722946	1
1	7715	12645.209127654798	2
1	7717	12645.835228694258	1
1	7720	12646.065743019523	0
1	7723	12646.834354827649	0
1	7725	12648.395842788706	0
1	7728	12649.733766870986	0
1	7730	12651.736286478751	0
1	7732	12656.520753494848	0
1	7735	12657.937293838949	0
1	7737	12672.645696602197	0
1	7739	12688.915248813959	0
1	7741	12689.376932947859	0
1	7743	12690.890577814128	0
1	7746	12693.939485453347	0
1	7748	12693.990451666576	0
1	7751	12699.504100373672	0
1	7753	12703.845657170988	0
1	7755	12709.27464173711	0
1	7758	12719.804161723269	0
1	7761	12725.656434642881	0
1	7763	12730.068589454427	0
1	7766	12731.915347880764	0
1	7769	12734.036264554056	0
1	7772	12734.64108124355	0
1	7774	12736.059869901838	0
1	7776	12736.992704137961	0
1	7778	12747.055600886431	0
1	7781	12755.137636390026	0
1	7783	12759.790321910389	0
1	7786	12760.666195170703	0
1	7789	12760.764774153813	0
1	7792	12761.99922000009	0
1	7795	12766.673257565572	0
1	7797	12771.393772114517	0
1	7800	12774.712319015135	0
1	7802	12775.707116067649	0
1	7805	12778.613668397704	0
1	7808	12780.630772725157	0
1	7810	12782.686138164858	0
1	7812	12783.708026773184	0
1	7814	12798.488124994463	0
1	7817	12799.349995116678	0
1	7819	12813.033319030632	0
1	7822	12833.22221083366	0
1	7825	12835.173514389688	0
1	7827	12836.49617942899	0
1	7830	12838.922069964874	0
1	7832	12841.285580344693	0
1	7834	12846.898264240606	0
1	7837	12851.892648956905	0
1	7840	12852.902174726621	0
1	7842	12855.224792274708	0
1	7845	12864.810642596763	0
1	7847	12865.471955289247	0
1	7849	12873.026060602147	0
1	7851	12882.048195706126	0
1	7854	12883.170934843875	0
1	7857	12886.622705285365	0
1	7859	12890.649284173708	0
1	7861	12891.369980036686	0
1	7863	12897.638233345444	0
1	7866	12902.998747375973	0
1	7869	12906.682921248811	0
1	7872	12908.980300553904	0
1	7875	12915.32602829145	0
1	7878	12916.741773401281	1
1	7880	12921.279992355361	0
1	7883	12921.490857945578	1
1	7885	12925.61829168105	2
1	7887	12929.859125806949	1
1	7890	12931.259790547066	0
1	7893	12934.433633446358	1
1	7895	12934.665517894544	0
1	7898	12935.52718494324	0
1	7900	12936.437543959403	0
1	7902	12937.271570158189	0
1	7905	12939.722153434788	0
1	7907	12940.858577847744	0
1	7909	12943.886631536847	0
1	7912	12944.252811878871	0
1	7915	12945.2725352607	0
1	7917	12949.20138533186	0
1	7920	12949.307118051337	0
1	7923	12951.499118356872	0
1	7925	12952.284206267697	0
1	7927	12958.44876554487	0
1	7929	12960.945874884751	0
1	7932	12961.223125663292	0
1	7935	12977.739359000081	0
1	7937	12982.014698482535	0
1	7940	12984.952480759247	0
1	7943	12992.08653646819	0
1	7945	12994.080975181179	0
1	7947	13001.191971489518	0
1	7950	13002.458566281578	0
1	7953	13003.472884197576	1
1	7955	13015.128058818901	2
1	7957	13030.322192771301	1
1	7960	13045.652007725547	0
1	7963	13048.236630901294	0
1	7965	13051.24252146764	0
1	7968	13054.332465278185	1
1	7970	13054.426607767779	0
1	7973	13054.895552968048	1
1	7975	13057.790802909512	2
1	7977	13058.68880735745	3
1	7979	13060.643933110307	4
1	7981	13064.836300823228	3
1	7984	13070.541022398782	4
1	7986	13076.743007611492	5
1	7988	13078.862533024845	6
1	7990	13082.682915861303	5
1	7993	13084.444626627688	4
1	7996	13093.524007057627	5
1	7998	13096.762432112803	4
1	8001	13099.419174700752	3
1	8004	13101.196361860592	4
1	8006	13104.048233710522	5
1	8008	13104.129940182171	6
1	8010	13108.299910243261	5
1	8013	13111.090197073967	4
1	8016	13111.277265516657	3
1	8019	13111.77706142666	4
1	8021	13114.803207628641	5
1	8023	13115.470283923124	4
1	8026	13119.662961844778	3
1	8029	13119.736433685141	2
1	8032	13121.615622910262	3
1	8034	13122.937094714382	4
1	8036	13128.047826387809	3
1	8039	13128.424953083283	2
1	8042	13130.365456084422	1
1	8045	13134.911915675259	2
1	8047	13135.528086990146	1
1	8050	13138.186733230908	0
1	8053	13143.538113929015	0
1	8055	13143.802406863879	0
1	8058	13156.102892450975	1
1	8060	13156.568931356636	2
1	8062	13157.599497284687	1
1	8065	13158.434278943266	0
1	8068	13161.204519888587	0
1	8070	13162.769386350764	0
1	8072	13163.18102680373	0
1	8075	13164.85596035045	0
1	8078	13166.932810603042	0
1	8080	13167.599207960056	0
1	8082	13168.600802921701	0
1	8085	13169.971875843532	0
1	8087	13177.58064973268	0
1	8089	13178.709941785296	0
1	8091	13185.05054073913	0
1	8094	13185.952611511395	0
1	8096	13187.789459481505	0
1	8099	13196.922087357891	0
1	8102	13202.202932600276	0
1	8105	13206.323842586663	0
1	8107	13207.610327657406	0
1	8109	13207.776776667726	0
1	8111	13210.05170825754	0
1	8114	13210.527978809726	0
1	8117	13220.151153066966	0
1	8120	13221.140948914455	0
1	8123	13221.963614564113	0
1	8125	13222.070103009022	0
1	8127	13224.556113289271	0
1	8130	13226.47310455148	0
1	8132	13230.292866989312	0
1	8135	13239.471788481269	0
1	8137	13244.432089311401	0
1	8139	13245.12429503781	0
1	8141	13249.228170879303	0
1	8143	13256.467697638383	0
1	8146	13260.509145621153	0
1	8148	13264.277495915706	0
1	8151	13266.177270949116	0
1	8154	13269.78243571635	0
1	8157	13270.102725513638	0
1	8160	13272.547438975596	0
1	8162	13277.417695723065	0
1	8165	13280.630533120573	0
1	8167	13292.279239981362	0
1	8169	13296.008209628259	0
1	8172	13300.666270652893	0
1	8175	13301.645115418333	0
1	8178	13310.9737221804	1
1	8180	13311.20246060572	2
1	8182	13311.424474897995	1
1	8185	13319.069483785181	0
1	8188	13324.851794460732	1
1	8190	13326.395636792691	2
1	8192	13333.703094164862	1
1	8195	13341.497096625579	2
1	8197	13354.522185486531	3
1	8199	13361.888710893982	2
1	8202	13365.95397004354	1
1	8205	13366.997265294002	0
1	8208	13368.513805408868	0
1	8210	13371.630721169521	0
1	8213	13377.704600665954	0
1	8215	13379.965832815055	0
1	8217	13383.639458138297	0
1	8219	13387.698182033612	0
1	8222	13389.406310479265	0
1	8225	13390.237197290204	0
1	8227	13391.066770157142	0
1	8229	13394.741998111502	0
1	8232	13395.093249849721	0
1	8234	13396.904410223055	0
1	8236	13405.698728889403	0
1	8239	13406.900791932387	0
1	8241	13407.920019238129	0
1	8244	13409.371641538767	0
1	8246	13422.901691828847	0
1	8249	13439.577925244992	0
1	8252	13440.143037528871	0
1	8254	13441.885865361484	0
1	8256	13455.344149502133	0
1	8258	13458.651297909179	0
1	8260	13466.98031133274	0
1	8262	13489.489273907942	0
1	8265	13499.699517136664	0
1	8268	13503.133211870606	0
1	8271	13510.059540500087	0
1	8273	13517.998060937946	0
1	8275	13527.323182950856	0
1	8278	13538.175583828557	0
1	8281	13560.197702895482	0
1	8284	13573.750319155641	0
1	8286	13579.333510865682	0
1	8288	13580.385028752754	0
1	8291	13596.680881043915	0
1	8294	13611.118387818594	0
1	8297	13611.658708693276	0
1	8300	13611.862400051507	0
1	8302	13617.055345212598	0
1	8304	13627.638333163673	0
1	8307	13630.649316334038	0
1	8310	13631.631352436388	0
1	8313	13632.664145964495	0
1	8315	13641.840575469365	0
1	8318	13644.301554038131	0
1	8320	13646.10274243937	0
1	8322	13646.153834771962	0
1	8325	13649.677069923021	0
1	8328	13651.864064880034	1
1	8330	13652.234046875179	2
1	8332	13660.851694176429	3
1	8334	13662.792532364419	2
1	8337	13663.622808131926	3
1	8339	13664.091811154827	4
1	8341	13664.562675050367	5
1	8343	13665.19416106694	6
1	8345	13667.776150330075	5
1	8348	13672.389323947851	4
1	8351	13675.287220789564	5
1	8353	13684.98529715181	4
1	8356	13685.995596930955	3
1	8359	13691.700174114099	2
1	8362	13694.083136561682	1
1	8365	13700.803799762526	0
1	8368	13702.454948115116	0
1	8370	13705.071103530781	0
1	8373	13706.805678241697	1
1	8375	13716.203642908674	2
1	8377	13717.494788774313	3
1	8379	13717.499121159739	2
1	8382	13723.672857685837	1
1	8385	13726.161835026284	2
1	8387	13727.047741156856	1
1	8390	13727.157611228915	0
1	8393	13736.06716681941	1
1	8395	13738.240241379858	0
1	8398	13743.808125457926	0
1	8400	13745.955571417317	0
1	8403	13752.626690421961	1
1	8405	13757.603742471016	2
1	8407	13761.891589762361	1
1	8410	13770.756395597159	0
1	8413	13775.125372518665	1
1	8415	13775.515914569599	2
1	8417	13789.511788343223	1
1	8420	13789.541357611676	2
1	8422	13791.373415709579	1
1	8425	13794.096468749599	0
1	8428	13795.330508557408	0
1	8430	13801.215885650588	0
1	8432	13801.735391476969	0
1	8435	13804.482594303089	0
1	8438	13811.976784901592	0
1	8440	13812.227729089302	0
1	8442	13813.039295595048	0
1	8444	13821.296679621815	0
1	8447	13822.245199101951	0
1	8450	13825.030862666897	0
1	8452	13832.548833026746	0
1	8455	13836.641906297195	0
1	8457	13839.399149614978	0
1	8459	13852.369739256677	0
1	8462	13857.522068757093	0
1	8465	13863.98157112507	0
1	8468	13865.587211075425	0
1	8470	13867.43586310722	0
1	8473	13870.548307979845	0
1	8475	13871.565058847597	0
1	8478	13881.436665323523	0
1	8480	13883.794167298034	0
1	8483	13889.847923946355	0
1	8485	13889.9239146031	0
1	8487	13890.538352500023	0
1	8489	13907.364150417661	0
1	8492	13911.552118634577	0
1	8495	13911.639018217601	0
1	8497	13912.777329835545	0
1	8499	13919.802349404364	0
1	8502	13920.917001391347	0
1	8504	13930.869015106368	0
1	8507	13932.758718622393	0
1	8509	13932.995875539697	0
1	8512	13933.384749982689	0
1	8514	13936.145024764818	0
1	8517	13939.323389263043	0
1	8520	13940.057933044042	0
1	8523	13941.386738352691	0
1	8525	13943.007319559822	0
1	8527	13952.051746285718	0
1	8529	13962.074899101113	0
1	8532	13964.865656619685	0
1	8534	13976.040129570577	0
1	8537	13977.551635211194	0
1	8539	13985.643353727516	0
1	8542	13990.026839690017	0
1	8544	13992.230848638595	0
1	8546	13998.051896549142	0
1	8548	14009.074668670972	0
1	8551	14021.888816402711	0
1	8554	14022.74192823211	0
1	8556	14035.617541085906	0
1	8558	14038.93383291692	0
1	8560	14039.777204478688	0
1	8563	14045.761260397652	0
1	8565	14072.653153331888	0
1	8568	14073.884431498047	0
1	8571	14073.944987948847	0
1	8573	14080.58050186708	0
1	8575	14084.681034420667	0
1	8578	14088.857635907325	0
1	8581	14101.067905235101	0
1	8584	14103.831853837174	0
1	8587	14106.121626763322	0
1	8589	14108.577627663148	0
1	8591	14113.583470463651	0
1	8594	14114.476119624698	0
1	8597	14121.141421457166	0
1	8600	14124.090310878699	0
1	8603	14127.872513162959	1
1	8605	14128.949730122452	2
1	8607	14132.501583883648	1
1	8610	14133.134430408111	2
1	8612	14133.169667422138	1
1	8615	14135.21063410687	2
1	8617	14135.370690279969	1
1	8620	14135.465153294339	2
1	8622	14137.900472270587	3
1	8624	14140.964668349798	2
1	8627	14145.383401811929	3
1	8629	14153.750701581114	2
1	8632	14155.265563717599	3
1	8634	14157.663857740687	4
1	8636	14164.547627101129	5
1	8638	14176.75670177538	6
1	8640	14180.695000234226	5
1	8643	14187.99514859159	4
1	8646	14188.08086486108	5
1	8648	14188.895971765975	4
1	8651	14189.995221258683	5
1	8653	14192.480574007554	6
1	8655	14195.353115686192	7
1	8657	14195.928436246222	6
1	8660	14200.969812767328	7
1	8662	14202.451430892961	8
1	8664	14203.238862697924	9
1	8666	14203.995420679066	8
1	8669	14205.052133487492	7
1	8672	14205.619893425646	8
1	8674	14205.70902988408	7
1	8677	14206.059312436569	6
1	8680	14208.571263726307	7
1	8682	14212.055475022725	6
1	8685	14213.482625429258	5
1	8688	14215.041199785066	6
1	8690	14218.047684020881	5
1	8693	14225.271561798978	6
1	8695	14228.013561156048	5
1	8698	14233.093465016839	4
1	8701	14233.697678219784	3
1	8704	14234.628052971905	4
1	8706	14234.89389341434	3
1	8709	14237.212598226657	4
1	8711	14238.499991618025	5
1	8713	14241.074595954532	4
1	8716	14242.262170647949	5
1	8718	14249.795126080106	4
1	8721	14250.652604265985	3
1	8724	14251.593739972298	4
1	8726	14257.12047409816	3
1	8729	14265.26396288372	2
1	8732	14269.734281946798	1
1	8735	14279.449050398592	0
1	8738	14282.557088331708	0
1	8740	14290.813122509557	0
1	8743	14295.140681354957	0
1	8745	14299.834937744956	0
1	8748	14305.61096914806	1
1	8750	14309.158842021735	0
1	8753	14312.472241210157	0
1	8755	14314.687852347729	0
1	8757	14316.138870080956	0
1	8760	14320.809097182223	0
1	8762	14321.239405082589	0
1	8764	14328.193887498807	0
1	8766	14335.789951676096	0
1	8768	14336.804869951386	0
1	8771	14336.903601359431	0
1	8773	14342.352291691405	0
1	8776	14347.475125947555	0
1	8779	14349.683545315109	0
1	8782	14350.521358980791	0
1	8785	14350.763537105446	0
1	8788	14352.637542955658	0
1	8790	14353.347863486641	0
1	8792	14357.36011021961	0
1	8795	14358.553111345608	0
1	8797	14363.835603516634	0
1	8800	14366.447351796816	0
1	8803	14374.458240949452	1
1	8805	14378.599330239533	0
1	8808	14379.18876950468	1
1	8810	14379.70942222187	2
1	8812	14384.59020570321	1
1	8815	14392.177931472864	0
1	8818	14392.995091129198	0
1	8820	14396.314294861203	0
1	8823	14397.9637896019	1
1	8825	14399.79244370037	0

