version 2
run POLICY_1-4-20191213-12:40:09-1214
attr configname POLICY_1
attr datetime 20191213-12:40:09
attr experiment POLICY_1
attr inifile omnetpp.ini
attr iterationvars ""
attr iterationvarsf ""
attr measurement ""
attr network Carrefour
attr processid 1214
attr repetition 4
attr replication #4
attr resultdir results
attr runnumber 4
attr seedset 4
param **.policy 1
param **.delta 0s
param **.tillsNumber 7
param **.capacity 0.3
param **.meanInterArrivalTime 8s
param **.meanItemsInACart 12
param **.interArrivalDistribution 0
param **.itemsInCartDistribution 0

vector 0 Carrefour.decider stats_numCustomers:vector ETV
attr "" ""
attr source numCustomers
vector 1 Carrefour.decider stats_numCustomersQueue:vector ETV
attr "" ""
attr source numCustomersQueue
0	806	1204.241555167361	4
0	809	1206.060874141865	5
0	812	1208.739351887121	4
0	814	1211.158606670095	5
0	817	1211.85856385839	4
0	819	1213.995279158938	5
0	822	1217.18124729933	4
0	824	1219.045768617674	5
0	827	1219.977465408052	4
0	829	1220.345179028201	3
0	831	1224.212885854785	4
0	834	1225.576210129057	3
0	836	1226.448765356696	2
0	838	1236.738292146454	1
0	840	1237.697461929798	2
0	843	1243.140960301348	3
0	846	1245.353316689804	4
0	849	1247.885029400512	3
0	851	1251.329024598497	2
0	853	1252.838657274377	3
0	856	1260.680438712267	4
0	859	1274.351657901263	5
0	862	1275.688083295397	4
0	864	1280.352492376416	5
0	867	1286.354023311371	6
0	870	1293.767979250925	7
0	873	1298.853901086407	6
0	875	1301.860104818632	5
0	877	1307.437850376971	4
0	879	1316.169848000911	5
0	882	1318.636486428324	6
0	885	1319.950234812475	5
0	887	1323.266862912202	4
0	889	1324.778039060166	3
0	891	1328.917469585711	4
0	894	1333.44920581761	5
0	897	1335.024695850366	6
0	900	1336.642133996643	5
0	902	1340.682690676007	6
0	905	1348.417584207789	7
0	908	1352.495612471663	8
0	910	1354.342845379423	7
0	913	1358.693232235137	6
0	915	1359.105081083096	7
0	918	1360.386763810006	6
0	920	1361.63769425036	5
0	922	1361.816682952434	6
0	925	1364.473463677205	5
0	927	1373.34791348326	6
0	930	1378.202346489541	5
0	932	1379.812884714293	4
0	934	1384.638252820508	3
0	936	1388.797673109519	2
0	938	1393.686165967288	3
0	941	1406.83204049822	4
0	944	1407.261446039612	3
0	946	1411.078166454176	4
0	949	1412.626519849577	3
0	951	1413.915869452511	4
0	954	1415.129047944249	3
0	956	1415.803436850994	4
0	959	1416.995008077128	5
0	962	1433.683026573273	4
0	964	1437.757780010022	5
0	967	1441.247404171291	4
0	969	1443.537958440001	3
0	971	1445.829369519313	4
0	974	1450.146272080163	5
0	977	1450.213016780774	6
0	980	1451.416929580999	7
0	983	1463.335929873669	6
0	985	1463.848321963191	7
0	988	1464.140819072837	6
0	990	1464.688804475749	7
0	993	1470.267289359304	8
0	995	1473.78734863629	7
0	998	1476.856073995346	6
0	1000	1486.10792954087	5
0	1002	1489.432133194605	4
0	1004	1490.443095383082	5
0	1007	1494.695693720731	4
0	1009	1508.175587084374	3
0	1011	1512.824064991967	2
0	1013	1521.629971095183	1
0	1015	1537.239110757326	2
0	1018	1540.067782486863	3
0	1021	1540.515509731135	2
0	1023	1573.169462806024	3
0	1026	1580.097195955371	2
0	1028	1597.154180987966	3
0	1031	1599.214804582917	4
0	1034	1602.507084150014	5
0	1037	1608.240642267025	4
0	1039	1617.681766529534	5
0	1042	1621.587772421152	6
0	1045	1626.301858846418	5
0	1047	1626.363586034091	4
0	1049	1634.993143440793	5
0	1052	1637.850587026471	4
0	1054	1639.717348416519	3
0	1056	1649.358255861059	2
0	1058	1654.428716002075	3
0	1061	1656.583623024423	4
0	1064	1665.648451418003	5
0	1067	1674.205229062656	6
0	1070	1686.231010260482	7
0	1073	1697.241360128006	6
0	1075	1698.330201909787	5
0	1077	1698.506897498712	4
0	1079	1709.172088057601	3
0	1081	1709.905181011788	2
0	1083	1716.468800243561	3
0	1086	1725.976006563598	4
0	1089	1728.144380208182	3
0	1091	1736.497283099212	4
0	1094	1756.797000357452	3
0	1096	1758.13537957603	4
0	1099	1758.939498800944	5
0	1102	1760.280421959993	4
0	1104	1762.843772243966	5
0	1107	1768.398653328768	6
0	1110	1769.819937449122	7
0	1113	1773.201892167006	6
0	1115	1773.617556274617	5
0	1117	1774.784467318961	6
0	1120	1777.18547134289	7
0	1123	1777.191424714345	8
0	1125	1778.5007783797	9
0	1127	1786.500534567955	8
0	1130	1788.312404400116	7
0	1133	1796.996866256163	6
0	1135	1814.535373103728	7
0	1138	1816.237897926568	6
0	1140	1817.697175261099	5
0	1142	1817.964984815552	4
0	1144	1824.699840224223	5
0	1147	1825.077213067162	4
0	1149	1825.580061336848	3
0	1151	1841.504830723217	4
0	1154	1847.928793386132	5
0	1157	1849.887931692695	6
0	1160	1854.536126465968	7
0	1163	1859.425654341865	6
0	1165	1861.974731845362	7
0	1168	1862.546626855377	6
0	1170	1875.197523835075	7
0	1173	1876.791940968933	6
0	1175	1880.306085481178	7
0	1178	1883.468648089402	6
0	1180	1884.019027848867	5
0	1182	1886.889263757453	6
0	1185	1890.448429772817	7
0	1188	1898.803687972203	8
0	1190	1903.385727087431	7
0	1193	1904.831834390233	8
0	1195	1906.426177263964	7
0	1198	1908.870217346367	8
0	1200	1909.602253748904	7
0	1203	1911.462947308214	6
0	1205	1914.103391585562	5
0	1207	1915.526238809352	6
0	1210	1918.030516170397	5
0	1212	1923.652119576304	6
0	1215	1927.184256050734	5
0	1217	1937.99655434012	6
0	1220	1939.0587323961	7
0	1223	1939.577714705588	8
0	1225	1944.103722724016	9
0	1227	1951.562405301216	10
0	1229	1953.970422112777	9
0	1232	1957.031486975923	10
0	1234	1959.915410940603	9
0	1237	1961.400698749676	8
0	1240	1962.634678195314	9
0	1242	1965.007028927925	8
0	1245	1966.961971048801	9
0	1247	1968.359643340372	10
0	1249	1971.835695774544	11
0	1251	1973.093095546859	12
0	1253	1975.667068732402	11
0	1256	1977.044256831658	10
0	1259	1981.968326313451	9
0	1262	1982.200964864574	10
0	1264	1988.885861091547	9
0	1267	1990.326337259547	10
0	1269	1993.483700690296	11
0	1271	1994.614435126858	10
0	1274	2010.641936545272	11
0	1276	2012.39258550865	12
0	1278	2012.659929710133	13
0	1280	2014.15586174194	12
0	1283	2017.60783187077	13
0	1285	2020.816813487281	12
0	1288	2022.077068560804	13
0	1290	2022.487798001972	12
0	1293	2023.31934981758	11
0	1296	2023.37054945481	12
0	1298	2028.292576491233	11
0	1301	2028.885949726672	10
0	1304	2040.193414748572	11
0	1306	2043.041572295624	10
0	1309	2044.748287237283	9
0	1312	2047.011962299242	8
0	1315	2047.255494747534	7
0	1318	2050.379869428187	8
0	1320	2054.657447163892	7
0	1323	2055.557723563631	8
0	1325	2058.673864690058	7
0	1328	2059.594971693281	6
0	1330	2062.582687971497	7
0	1333	2066.24818068419	8
0	1335	2070.739210355549	9
0	1337	2070.830499805793	8
0	1340	2072.941552806166	9
0	1342	2073.327962632801	10
0	1344	2073.723432512039	11
0	1346	2080.081411871999	12
0	1348	2081.622004447562	13
0	1350	2082.704254058637	14
0	1352	2085.105375627742	13
0	1355	2089.213683687821	14
0	1357	2089.383004856898	13
0	1360	2092.317797226424	12
0	1363	2096.128858384045	13
0	1365	2099.51614778707	12
0	1368	2102.170494214171	13
0	1370	2102.999432285144	12
0	1373	2103.665039021538	13
0	1375	2109.951026637358	14
0	1377	2110.382036936184	15
0	1379	2112.835905353812	14
0	1382	2113.224618035682	15
0	1384	2114.272839835391	14
0	1387	2118.32617904223	15
0	1389	2134.371190503006	16
0	1391	2136.422789481223	17
0	1393	2142.760564774115	16
0	1396	2148.84680883829	15
0	1399	2150.458740389691	14
0	1402	2151.438533465961	15
0	1404	2159.818813381214	14
0	1407	2162.919020372372	13
0	1410	2164.251702457898	12
0	1413	2164.82088347629	13
0	1415	2169.835271395882	14
0	1417	2171.022474484809	15
0	1419	2174.240331482802	14
0	1422	2174.856422820033	13
0	1425	2182.156410267519	14
0	1427	2182.88252636747	15
0	1429	2186.083068305889	14
0	1432	2188.362998341991	13
0	1435	2190.285718958897	12
0	1438	2195.12645616569	13
0	1440	2199.569903121935	14
0	1442	2203.242056212947	15
0	1444	2212.704662398466	16
0	1446	2214.266099086051	17
0	1448	2220.001232924924	18
0	1450	2222.333366963371	19
0	1452	2227.538011414971	20
0	1454	2229.382196236442	19
0	1457	2229.702944208932	20
0	1459	2232.456721403528	19
0	1462	2233.043858280144	20
0	1464	2234.84422259414	19
0	1467	2237.023127380155	20
0	1469	2237.029206315127	19
0	1472	2238.861114549896	18
0	1475	2242.924786539842	17
0	1478	2246.731790995917	16
0	1481	2254.017915712745	15
0	1484	2257.716587673371	16
0	1486	2257.774447670646	17
0	1488	2257.945054690893	16
0	1491	2260.087392162397	15
0	1494	2261.290472201645	14
0	1497	2265.908963692191	13
0	1500	2269.265473105834	12
0	1503	2270.493312040728	11
0	1506	2277.195738702558	12
0	1508	2279.83367566792	13
0	1510	2289.679015086035	14
0	1512	2290.339919008071	13
0	1515	2295.840452452804	14
0	1517	2296.852886470729	13
0	1520	2312.360248218569	14
0	1522	2315.136563955639	13
0	1525	2315.279007128904	12
0	1528	2316.760374612867	13
0	1530	2321.869779781599	12
0	1533	2323.12926661806	13
0	1535	2326.392235404086	12
0	1538	2329.200594122356	13
0	1540	2332.260299032728	12
0	1543	2333.535022973586	11
0	1546	2335.158343071649	10
0	1549	2343.022281149221	9
0	1552	2351.246072051286	8
0	1555	2351.255704860479	7
0	1558	2351.3615926565	6
0	1560	2354.728876983046	5
0	1562	2357.618411976407	6
0	1565	2358.768199236098	5
0	1567	2368.397381702272	6
0	1570	2369.672530895017	5
0	1572	2380.215924455777	6
0	1575	2382.535981086614	5
0	1577	2385.918559759922	4
0	1579	2391.420717461973	3
0	1581	2396.747386818526	2
0	1583	2401.630131944546	3
0	1586	2402.531424302987	2
0	1588	2408.164212032839	3
0	1591	2411.320378361691	4
0	1594	2411.35729801504	3
0	1596	2421.411310388046	4
0	1599	2423.935284014766	5
0	1602	2424.954872961605	4
0	1604	2427.777619651367	5
0	1607	2432.951147687116	6
0	1610	2434.024257239565	5
0	1612	2438.245342461984	6
0	1615	2440.373434583848	5
0	1617	2445.770341998093	6
0	1620	2455.116579887461	7
0	1623	2456.152646751204	6
0	1625	2456.775237869196	7
0	1628	2463.32923473465	6
0	1630	2465.170388800585	5
0	1632	2471.827978157176	6
0	1635	2472.055135812738	7
0	1638	2475.508030597429	8
0	1640	2477.333214504996	9
0	1642	2478.632137299707	8
0	1645	2490.567439399075	9
0	1647	2492.816847695139	10
0	1649	2495.736938422938	11
0	1651	2500.323236836688	12
0	1653	2502.904304128518	11
0	1656	2504.540691805109	10
0	1659	2504.551301357757	9
0	1662	2511.086592032214	10
0	1664	2512.015829612105	9
0	1667	2514.121537514752	8
0	1670	2519.060727197513	9
0	1672	2523.262089340836	10
0	1674	2524.300043944105	9
0	1677	2526.131775311075	10
0	1679	2529.637318622975	9
0	1682	2529.756001486486	8
0	1685	2531.617428505724	7
0	1688	2535.638529762258	6
0	1690	2542.771893995479	5
0	1692	2543.301723421672	4
0	1694	2554.274379182891	5
0	1697	2557.546205172305	4
0	1699	2557.619746356717	3
0	1701	2581.960691477711	2
0	1703	2583.94922798659	3
0	1706	2584.79525402348	2
0	1708	2593.596764316708	3
0	1711	2595.189493078025	2
0	1713	2609.989512098681	3
0	1716	2611.096810156302	4
0	1719	2618.852908301768	5
0	1722	2619.701256926204	4
0	1724	2631.240052596479	3
0	1726	2639.325217702394	2
0	1728	2642.933005880677	3
0	1731	2646.231559129226	4
0	1734	2648.811476049409	3
0	1736	2650.670799922644	4
0	1739	2652.158850067933	5
0	1742	2656.086649842295	6
0	1745	2662.530579177067	5
0	1747	2664.71078018274	6
0	1750	2666.588819281875	5
0	1752	2672.21633714686	4
0	1754	2705.626490156151	5
0	1757	2707.936481317612	4
0	1759	2709.733804862941	3
0	1761	2715.681234344068	4
0	1764	2723.97725295238	5
0	1767	2724.524346395789	6
0	1770	2724.743564774044	7
0	1773	2731.364017147875	6
0	1775	2731.757753766151	5
0	1777	2736.680936836781	6
0	1780	2740.738882066179	5
0	1782	2746.063393033221	6
0	1785	2748.063935631682	5
0	1787	2750.659643161057	4
0	1789	2753.902550727228	3
0	1791	2759.324679644594	2
0	1793	2763.622485933185	3
0	1796	2764.145207585069	4
0	1799	2772.14745240246	5
0	1802	2776.057486564862	6
0	1805	2778.272825816041	5
0	1807	2785.779172789385	6
0	1810	2787.653813186103	7
0	1813	2799.980394875205	6
0	1815	2802.76557296468	5
0	1817	2803.581990191005	6
0	1820	2809.948892914676	5
0	1822	2820.138673987455	6
0	1825	2829.116333055677	5
0	1827	2833.389583839352	4
0	1829	2834.049016168242	3
0	1831	2834.854356038678	2
0	1833	2842.065333556201	1
0	1835	2843.902919058282	2
0	1838	2846.750145638081	1
0	1840	2851.168929545146	0
0	1842	2853.125042132858	1
0	1845	2856.594433202485	2
0	1848	2858.403574008908	1
0	1850	2873.867617165503	2
0	1853	2874.35583010047	3
0	1856	2884.95855711986	4
0	1859	2887.938147762537	5
0	1862	2899.532932167934	4
0	1864	2904.992269601818	5
0	1867	2906.491112560684	6
0	1870	2908.26955575356	5
0	1872	2910.843260186383	4
0	1874	2917.381121687016	5
0	1877	2921.128983872307	6
0	1880	2921.468677491398	7
0	1883	2921.891012405798	6
0	1885	2927.077644993759	7
0	1888	2929.937787215664	6
0	1890	2943.689562032289	5
0	1892	2944.298919335553	6
0	1895	2947.143714390135	5
0	1897	2956.802862446164	6
0	1900	2958.812201343551	7
0	1903	2971.003705915736	6
0	1905	2983.185357712247	7
0	1908	2983.328152188426	6
0	1910	2986.722421224737	5
0	1912	2990.376176548204	6
0	1915	2991.742727776956	5
0	1917	2993.114080458742	6
0	1920	3001.861843739773	5
0	1922	3002.862166822825	4
0	1924	3010.073448793479	5
0	1927	3021.039124771374	4
0	1929	3021.468379266505	3
0	1931	3034.368231465486	4
0	1934	3039.427334294199	3
0	1936	3046.314663147312	4
0	1939	3047.941824578448	5
0	1942	3048.816911209561	6
0	1945	3051.248734857651	5
0	1947	3053.456335713089	6
0	1950	3053.732778527771	7
0	1953	3054.987856468465	6
0	1955	3055.344808471246	7
0	1958	3060.721788677081	8
0	1960	3060.934846069855	7
0	1963	3063.13766998016	8
0	1965	3064.703889699188	7
0	1968	3071.26815600395	8
0	1970	3071.407009214785	9
0	1972	3081.800577165572	10
0	1974	3084.062447755587	11
0	1976	3090.959905732982	12
0	1978	3094.315250466762	11
0	1981	3094.868660840074	12
0	1983	3095.633742458185	11
0	1986	3096.468527533431	10
0	1989	3097.640240781309	9
0	1992	3104.642104708646	8
0	1995	3110.419623761423	7
0	1998	3117.079479181272	8
0	2000	3118.950537153016	7
0	2003	3120.661274032016	6
0	2005	3122.579473327651	7
0	2008	3123.798782937555	6
0	2010	3124.691225722796	5
0	2012	3125.58824383902	6
0	2015	3125.99222251445	5
0	2017	3128.482220230585	6
0	2020	3129.073491438821	7
0	2023	3129.178506156906	8
0	2025	3130.218773185525	9
0	2027	3138.672139023165	8
0	2030	3146.973598656459	9
0	2032	3157.411826243471	8
0	2035	3158.936495547627	7
0	2038	3160.676430379151	6
0	2040	3162.120706326213	5
0	2042	3162.729377251456	4
0	2044	3175.832338433764	3
0	2046	3182.275958210941	4
0	2049	3184.430453621989	5
0	2052	3184.444120079045	4
0	2054	3188.969551523666	5
0	2057	3190.945983398715	6
0	2060	3194.30027910517	5
0	2062	3200.731631739112	6
0	2065	3200.765022892849	7
0	2068	3202.618369887133	6
0	2070	3206.595507055929	7
0	2073	3207.139470901982	6
0	2075	3209.004682286021	7
0	2078	3211.228707670405	6
0	2080	3212.858504183791	7
0	2083	3215.431090441367	8
0	2085	3219.873938787706	7
0	2088	3219.954867208265	8
0	2090	3221.598702703159	7
0	2093	3226.770537398239	8
0	2095	3229.867052009263	7
0	2098	3230.012269869245	8
0	2100	3230.083357711077	7
0	2103	3235.890802642838	8
0	2105	3237.401156336567	7
0	2108	3238.173253369751	6
0	2110	3239.652584816151	5
0	2112	3242.218028015815	6
0	2115	3246.553758172106	5
0	2117	3255.062780508233	6
0	2120	3257.130117660023	5
0	2122	3273.97813188063	4
0	2124	3280.273399047169	3
0	2126	3284.817937610962	4
0	2129	3291.607806223997	3
0	2131	3296.870985041885	4
0	2134	3311.367037490048	5
0	2137	3314.663235937174	4
0	2139	3329.73873248468	3
0	2141	3330.012083067467	2
0	2143	3332.650120935	3
0	2146	3339.291718391161	2
0	2148	3339.783373752342	1
0	2150	3343.290622470151	2
0	2153	3344.621478467959	1
0	2155	3349.258111884334	2
0	2158	3351.032962794951	3
0	2161	3354.052745403516	2
0	2163	3356.527810527227	1
0	2165	3366.848145211946	0
0	2167	3372.894648579066	1
0	2170	3374.103901526359	2
0	2173	3387.662341364186	3
0	2176	3390.616455009286	4
0	2179	3392.293830513919	5
0	2182	3393.654217975922	4
0	2184	3399.419318942032	5
0	2187	3404.179105506442	4
0	2189	3407.212665754593	3
0	2191	3408.984582275871	4
0	2194	3413.710953226787	5
0	2197	3422.465076207764	4
0	2199	3429.737649230049	3
0	2201	3431.621027463302	2
0	2203	3433.429112960861	3
0	2206	3440.653205943994	4
0	2209	3442.675086413214	3
0	2211	3457.777725887845	2
0	2213	3457.911555556844	1
0	2215	3459.321803977991	2
0	2218	3462.833935031717	1
0	2220	3464.118603558987	2
0	2223	3475.725041823825	1
0	2225	3479.945303950149	2
0	2228	3481.526989402109	3
0	2231	3489.871722732584	4
0	2234	3490.584705787312	3
0	2236	3492.818679314805	2
0	2238	3497.81608023816	3
0	2241	3500.490104459725	2
0	2243	3511.167264033259	1
0	2245	3523.575615303826	2
0	2248	3557.060369406362	3
0	2251	3557.933793317929	2
0	2253	3559.362004814327	3
0	2256	3563.074352327227	2
0	2258	3564.210542647237	1
0	2260	3567.597979410014	2
0	2263	3577.16003985322	3
0	2266	3581.521177868904	4
0	2269	3582.576929555091	5
0	2272	3586.749342215791	4
0	2274	3590.288277962537	3
0	2276	3591.5990977983	2
0	2278	3593.090226783644	3
0	2281	3593.464058463672	2
0	2283	3594.094169866034	1
0	2285	3601.786088655422	2
0	2288	3605.136185122072	3
0	2291	3605.969174899946	2
0	2293	3615.029277746247	3
0	2296	3625.408931436433	4
0	2299	3630.285471369674	3
0	2301	3634.326483928244	4
0	2304	3636.88124872053	5
0	2307	3642.396887005305	6
0	2310	3642.434766367162	7
0	2313	3646.674848040467	8
0	2315	3656.728388922118	7
0	2318	3658.152268699812	8
0	2320	3660.865209229217	7
0	2323	3666.627142439572	6
0	2325	3674.272244422753	7
0	2328	3678.381350850841	8
0	2330	3679.321581933621	7
0	2333	3680.377638454924	6
0	2335	3683.456584620471	7
0	2338	3686.209052735352	6
0	2340	3687.940365487215	5
0	2342	3690.723313266211	6
0	2345	3691.900486616138	5
0	2347	3693.783027806372	6
0	2350	3696.471391108464	7
0	2353	3696.669939302974	6
0	2355	3696.857665478853	7
0	2358	3702.934454108148	6
0	2360	3712.765044195881	7
0	2363	3716.408981379199	6
0	2365	3721.374916814788	7
0	2368	3722.472564627962	8
0	2370	3725.495304160933	7
0	2373	3726.983409518197	6
0	2375	3728.800138495389	5
0	2377	3733.743104381937	6
0	2380	3733.890677144194	7
0	2383	3739.365161652877	6
0	2385	3739.498064553172	7
0	2388	3742.77602712227	6
0	2390	3745.156986844811	5
0	2392	3749.990615236517	4
0	2394	3759.967058715055	5
0	2397	3760.417903773759	4
0	2399	3770.425945974122	5
0	2402	3774.612552995634	6
0	2405	3776.61797631099	5
0	2407	3779.514020008884	4
0	2409	3782.778848228099	5
0	2412	3793.744082180543	4
0	2414	3795.098527249503	3
0	2416	3796.423755812032	4
0	2419	3799.32840374138	3
0	2421	3802.00394949589	4
0	2424	3814.820452981122	3
0	2426	3818.665353969113	2
0	2428	3830.024161614344	3
0	2431	3831.693082599212	4
0	2434	3838.34158097904	3
0	2436	3840.763599059738	2
0	2438	3843.651925038956	1
0	2440	3848.826238774981	2
0	2443	3852.361756894586	3
0	2446	3854.611396591968	2
0	2448	3858.573167312798	3
0	2451	3869.039611492179	4
0	2454	3874.789583680305	3
0	2456	3886.703372735949	4
0	2459	3890.080268012971	3
0	2461	3897.811804216285	4
0	2464	3901.840034836559	3
0	2466	3907.78327566792	4
0	2469	3908.220000561532	5
0	2472	3910.765767881346	6
0	2475	3913.417565316104	5
0	2477	3915.236598365498	6
0	2480	3923.24753649286	5
0	2482	3923.462302667756	4
0	2484	3923.90355920961	5
0	2487	3931.417381700779	6
0	2490	3937.499469553848	7
0	2493	3937.853785901577	6
0	2495	3939.357018200392	5
0	2497	3942.617727841111	4
0	2499	3948.042003924865	5
0	2502	3955.53254008406	4
0	2504	3979.395763091782	5
0	2507	3983.471277219678	6
0	2510	3988.391413452588	5
0	2512	3992.292798004211	6
0	2515	3995.875816229827	5
0	2517	3997.45295143945	4
0	2519	3998.582338777749	5
0	2522	3999.803674914382	4
0	2524	4003.126954911527	3
0	2526	4006.381432692392	2
0	2528	4007.511548902885	3
0	2531	4011.317076089167	4
0	2534	4017.388796341533	3
0	2536	4017.90499957758	4
0	2539	4021.017609562223	3
0	2541	4021.230113091481	4
0	2544	4022.977215678166	5
0	2547	4026.136070232759	6
0	2550	4027.618737114107	7
0	2553	4029.405971884671	6
0	2555	4031.380158893424	5
0	2557	4031.834208474544	4
0	2559	4041.365007275558	5
0	2562	4043.707658208997	4
0	2564	4052.234585523772	3
0	2566	4070.793585371057	4
0	2569	4071.203876739709	3
0	2571	4071.437764930961	4
0	2574	4073.308584842321	5
0	2577	4073.428443025782	4
0	2579	4073.604934314302	5
0	2582	4077.673467651252	4
0	2584	4079.634450696926	5
0	2587	4080.878871138208	4
0	2589	4088.877644811287	5
0	2592	4089.034229932529	4
0	2594	4089.212802504549	5
0	2597	4091.184722115891	4
0	2599	4092.820610227669	5
0	2602	4096.674300392762	4
0	2604	4104.808781622493	3
0	2606	4114.178759338065	4
0	2609	4116.551538607532	3
0	2611	4128.239378731838	2
0	2613	4133.879335812748	1
0	2615	4136.735576964872	2
0	2618	4141.832251978272	3
0	2621	4142.151081786404	2
0	2623	4143.327882838357	3
0	2626	4144.337937237225	4
0	2629	4148.581621430461	5
0	2632	4154.471461247963	4
0	2634	4155.581870304715	5
0	2637	4155.617811335986	4
0	2639	4159.649412194807	5
0	2642	4172.217657565948	4
0	2644	4175.739588200134	5
0	2647	4178.61410985017	4
0	2649	4179.679021022041	3
0	2651	4181.45575531116	4
0	2654	4184.738810505959	5
0	2657	4186.104256223491	6
0	2660	4186.934675264795	7
0	2663	4187.959229117631	6
0	2665	4215.31377493536	5
0	2667	4219.37545616836	6
0	2670	4222.548946761718	7
0	2673	4229.677976769033	6
0	2675	4230.562702529986	7
0	2678	4231.681819228743	6
0	2680	4235.512999969198	5
0	2682	4236.141617541471	4
0	2684	4252.185466504182	5
0	2687	4254.536731221824	4
0	2689	4273.421791941892	5
0	2692	4276.211538059938	4
0	2694	4277.130515104766	5
0	2697	4284.386837657072	4
0	2699	4284.778529681096	3
0	2701	4285.297183126912	4
0	2704	4288.518540723991	3
0	2706	4288.56943611799	4
0	2709	4296.652008795629	5
0	2712	4298.110976784833	4
0	2714	4299.661059019498	5
0	2717	4307.011390277277	6
0	2720	4310.119348706525	5
0	2722	4313.552961400654	4
0	2724	4326.906555299089	3
0	2726	4349.95612421669	4
0	2729	4350.507259471193	3
0	2731	4351.067883082418	2
0	2733	4352.217316672523	3
0	2736	4353.456595243186	4
0	2739	4356.159198121857	5
0	2742	4358.423280521826	4
0	2744	4360.544182983512	5
0	2747	4362.004349971836	6
0	2750	4362.476484964263	5
0	2752	4363.304809633095	4
0	2754	4365.616802098275	3
0	2756	4367.532059206379	4
0	2759	4377.366925914655	5
0	2762	4379.414501420374	6
0	2765	4394.925719654105	7
0	2768	4398.25548498661	6
0	2770	4400.21730594202	7
0	2773	4402.199316170564	8
0	2775	4410.525266819916	7
0	2778	4410.72858447503	8
0	2780	4411.241337617724	9
0	2782	4411.845589715804	10
0	2784	4415.978440765261	11
0	2786	4418.65519488913	10
0	2789	4425.049447421761	11
0	2791	4445.329444620179	10
0	2794	4448.926761908236	9
0	2797	4452.032760426862	10
0	2799	4457.789398035927	9
0	2802	4457.829311910677	10
0	2804	4459.07906015091	11
0	2806	4467.020043959389	12
0	2808	4468.911511668274	11
0	2811	4472.657961746407	10
0	2814	4473.50601618636	11
0	2816	4473.67160015119	10
0	2819	4476.140243449503	9
0	2822	4478.481887839799	8
0	2825	4481.902849845652	7
0	2828	4482.818578236166	6
0	2830	4483.614559993229	7
0	2833	4485.544921056334	6
0	2835	4486.614819168663	5
0	2837	4488.533362575703	4
0	2839	4495.604685409299	5
0	2842	4495.668092825433	4
0	2844	4500.770714507305	5
0	2847	4502.505118397508	6
0	2850	4505.772929467146	5
0	2852	4511.282831494639	6
0	2855	4513.587708176729	5
0	2857	4514.713608371981	6
0	2860	4515.998339084261	5
0	2862	4518.624376162717	6
0	2865	4520.639533959809	7
0	2868	4527.3864807744	6
0	2870	4527.723975654644	5
0	2872	4528.109665313257	6
0	2875	4528.21369015427	5
0	2877	4528.923091835161	4
0	2879	4533.142461787893	5
0	2882	4533.306042726144	4
0	2884	4534.904511723775	5
0	2887	4546.890433981648	4
0	2889	4549.76951563982	3
0	2891	4555.68995801568	2
0	2893	4556.788445451333	3
0	2896	4564.800767135567	2
0	2898	4570.468230547895	3
0	2901	4573.183019975424	2
0	2903	4578.448652895495	3
0	2906	4583.051358050463	4
0	2909	4583.988434671919	5
0	2912	4585.261038877555	4
0	2914	4586.135154345091	5
0	2917	4589.492957724123	6
0	2920	4590.469167602132	5
0	2922	4591.77393477238	4
0	2924	4618.006377959688	5
0	2927	4618.712486484059	4
0	2929	4620.097426818933	3
0	2931	4626.900331050003	2
0	2933	4627.738866374351	3
0	2936	4645.154680215804	4
0	2939	4655.035978282674	3
0	2941	4663.863722764246	2
0	2943	4686.820192649168	3
0	2946	4715.525879880137	4
0	2949	4719.121234757377	5
0	2952	4720.599660989317	4
0	2954	4722.934065299531	5
0	2957	4728.788424755199	6
0	2960	4731.280444712579	5
0	2962	4743.597358244057	6
0	2965	4745.624430571568	7
0	2968	4752.806723231601	6
0	2970	4754.94465856395	5
0	2972	4755.877248644495	4
0	2974	4759.574464328024	3
0	2976	4761.710670565017	2
0	2978	4772.303383908562	3
0	2981	4775.718569532229	4
0	2984	4777.456095783507	3
0	2986	4777.579304365437	4
0	2989	4778.720288154202	5
0	2992	4780.002277344822	6
0	2995	4781.633242835027	7
0	2998	4798.995329132327	6
0	3000	4802.949304222876	5
0	3002	4806.615624873078	4
0	3004	4812.275286145288	3
0	3006	4812.721781248866	4
0	3009	4815.562748355897	5
0	3012	4819.792294806231	6
0	3015	4820.190705213249	7
0	3018	4820.937824497253	6
0	3020	4822.146208266194	5
0	3022	4823.093975680646	4
0	3024	4833.810716679948	5
0	3027	4836.414328624895	6
0	3030	4842.026435909388	7
0	3033	4842.720574721939	8
0	3035	4847.912871137131	7
0	3038	4850.926621262797	6
0	3040	4854.004301088105	5
0	3042	4858.839527780075	6
0	3045	4859.076168010649	7
0	3048	4871.090688018497	8
0	3050	4872.92997737317	7
0	3053	4875.847510726205	6
0	3055	4882.399870762801	5
0	3057	4893.298855473217	4
0	3059	4897.69551110383	3
0	3061	4897.824141032898	4
0	3064	4900.964538523594	5
0	3067	4904.125456012225	6
0	3070	4904.433393158558	7
0	3073	4905.153764597688	6
0	3075	4906.226871793503	5
0	3077	4908.226801174073	4
0	3079	4911.544124898935	3
0	3081	4913.764388523802	4
0	3084	4916.095840718886	3
0	3086	4923.87472275935	4
0	3089	4924.84958218581	3
0	3091	4926.318270700222	2
0	3093	4926.499593304163	3
0	3096	4929.686832776819	4
0	3099	4934.329372021683	5
0	3102	4935.350932975397	6
0	3105	4941.384685542271	5
0	3107	4942.692146865739	4
0	3109	4949.037505487663	5
0	3112	4950.00562693133	6
0	3115	4962.623997657619	7
0	3118	4965.814208138974	6
0	3120	4967.502874902484	7
0	3123	4970.844677210043	6
0	3125	4973.475726535784	7
0	3128	4974.68824448448	8
0	3130	4978.181804773028	9
0	3132	4979.526422645846	8
0	3135	4982.649761503186	7
0	3138	4991.666252808803	6
0	3140	5006.786015592603	5
0	3142	5007.558544742564	4
0	3144	5020.485628960721	5
0	3147	5023.632393863463	6
0	3150	5038.385793417178	5
0	3152	5038.403287268531	4
0	3154	5039.73376728149	5
0	3157	5044.388970371033	4
0	3159	5054.210926534728	3
0	3161	5056.903439369636	4
0	3164	5057.037416565965	3
0	3166	5059.183664432347	2
0	3168	5067.781291368182	3
0	3171	5068.731154830171	4
0	3174	5074.626429847676	3
0	3176	5076.199262604747	4
0	3179	5077.83274844271	3
0	3181	5080.059921935601	4
0	3184	5089.260601001812	3
0	3186	5093.464977865919	2
0	3188	5098.17985076498	3
0	3191	5098.512760615155	4
0	3194	5101.458845079576	5
0	3197	5109.503650153123	6
0	3200	5111.759115468693	5
0	3202	5118.483961889557	4
0	3204	5118.683744016603	5
0	3207	5129.124084233901	4
0	3209	5133.514201886624	3
0	3211	5141.48719350102	4
0	3214	5145.653065338579	3
0	3216	5145.654978468156	4
0	3219	5148.640271395682	3
0	3221	5148.676362789349	2
0	3223	5152.386308295491	3
0	3226	5152.939370024125	2
0	3228	5155.539185435976	3
0	3231	5159.149905390568	4
0	3234	5161.830516933519	3
0	3236	5180.626444964523	4
0	3239	5181.406181839423	3
0	3241	5183.628690094097	4
0	3244	5189.634325116569	5
0	3247	5190.685979769048	4
0	3249	5194.770023999919	3
0	3251	5199.3485550748	4
0	3254	5203.580153624292	5
0	3257	5204.85695823197	6
0	3260	5210.033450097508	7
0	3263	5217.470814283201	6
0	3265	5220.248749941065	7
0	3268	5223.214737423336	8
0	3270	5224.637730208266	9
0	3272	5240.174047127497	8
0	3275	5241.398313594927	9
0	3277	5241.766532875582	8
0	3280	5241.930129139145	7
0	3283	5244.019264447151	8
0	3285	5245.789302865596	7
0	3288	5246.537056637777	6
0	3290	5247.494626472966	7
0	3293	5251.43287315167	6
0	3295	5254.357494858723	5
0	3297	5260.912769146924	4
0	3299	5262.813468378234	3
0	3301	5266.088821022017	2
0	3303	5276.150372336812	3
0	3306	5280.950845369441	4
0	3309	5283.668838291945	3
0	3311	5284.168579895379	4
0	3314	5287.120980088659	5
0	3317	5290.819803877598	4
0	3319	5303.755651380264	3
0	3321	5313.102205276473	4
0	3324	5317.265964268402	3
0	3326	5320.150285443328	4
0	3329	5329.064666889099	3
0	3331	5338.507426396996	4
0	3334	5339.895330897629	3
0	3336	5341.599980031493	4
0	3339	5343.27488759852	5
0	3342	5350.254822212036	4
0	3344	5355.202686365146	5
0	3347	5355.489013567836	6
0	3350	5365.188107519805	5
0	3352	5367.389208813881	6
0	3355	5368.699575643173	5
0	3357	5371.137216649266	6
0	3360	5372.324387732855	5
0	3362	5377.73987265468	6
0	3365	5383.768373581419	5
0	3367	5386.033220935097	4
0	3369	5387.179461351945	5
0	3372	5388.259738176738	6
0	3375	5391.541558632865	5
0	3377	5395.549448622826	4
0	3379	5407.384300533111	3
0	3381	5411.006340131822	2
0	3383	5412.30473451568	3
0	3386	5413.48109581277	2
0	3388	5427.683530078627	3
0	3391	5428.603833307346	2
0	3393	5431.227020447589	3
0	3396	5435.892845034183	2
0	3398	5442.928569234327	3
0	3401	5446.607375033826	4
0	3404	5448.199749932877	3
0	3406	5451.282148052935	4
0	3409	5452.476267327836	5
0	3412	5455.278795764413	4
0	3414	5469.895341418922	5
0	3417	5480.686922914517	4
0	3419	5481.196860860278	5
0	3422	5486.647811755311	4
0	3424	5493.093819457393	3
0	3426	5500.526083697543	4
0	3429	5502.925215482431	3
0	3431	5503.0399269084	2
0	3433	5505.579830095506	3
0	3436	5506.492485398323	4
0	3439	5508.201455372664	3
0	3441	5509.948820743173	2
0	3443	5511.748183206816	3
0	3446	5512.689754216246	4
0	3449	5514.354360057457	5
0	3452	5518.611502078732	6
0	3455	5519.059174672832	7
0	3458	5519.541843041133	6
0	3460	5526.148622895843	5
0	3462	5529.753763820716	6
0	3465	5538.950880946705	5
0	3467	5539.034239550083	6
0	3470	5544.991006815489	5
0	3472	5553.277592239047	4
0	3474	5563.255757329218	5
0	3477	5566.287794608048	4
0	3479	5568.533806076323	5
0	3482	5577.041406803366	6
0	3485	5587.064382518471	5
0	3487	5591.093366437619	6
0	3490	5593.404653927622	5
0	3492	5597.213412398798	4
0	3494	5598.116601784281	3
0	3496	5608.40492788885	4
0	3499	5608.630280815122	5
0	3502	5609.891889451463	4
0	3504	5614.782461491513	5
0	3507	5620.427889321752	4
0	3509	5622.616748531315	3
0	3511	5629.082726578055	4
0	3514	5629.702237459885	5
0	3517	5641.147609840255	4
0	3519	5644.333883009854	5
0	3522	5650.395383563683	4
0	3524	5671.699775405164	5
0	3527	5674.297985356347	6
0	3530	5678.08108285519	7
0	3533	5678.560271524982	6
0	3535	5681.289945723499	7
0	3538	5681.99227679715	8
0	3540	5683.156259584195	7
0	3543	5689.614304604358	6
0	3545	5692.346347588427	7
0	3548	5692.558210991968	6
0	3550	5695.266295028301	5
0	3552	5707.417257681315	4
0	3554	5708.925732653417	5
0	3557	5709.086539307588	4
0	3559	5710.841783997534	3
0	3561	5719.644615895131	4
0	3564	5724.902509033506	5
0	3567	5731.168009727673	4
0	3569	5733.079965742923	3
0	3571	5737.567184183	4
0	3574	5739.466915750186	3
0	3576	5745.321757758985	2
0	3578	5747.158809359864	1
0	3580	5754.607668547233	2
0	3583	5755.309425884112	3
0	3586	5770.370841320271	4
0	3589	5775.244485819784	5
0	3592	5778.477320037182	6
0	3595	5786.945519655588	5
0	3597	5793.552477867589	4
0	3599	5793.695923505147	5
0	3602	5794.451303712481	4
0	3604	5795.21469506103	5
0	3607	5798.88657611466	4
0	3609	5812.110912552765	3
0	3611	5831.441920884689	4
0	3614	5843.714991143225	3
0	3616	5844.865460991321	4
0	3619	5855.153691958807	5
0	3622	5857.807093437329	6
0	3625	5858.697439299463	5
0	3627	5871.017147330739	6
0	3630	5871.096847453098	7
0	3633	5872.050136491459	8
0	3635	5876.880915498964	7
0	3638	5878.005297965418	6
0	3640	5879.52076262846	7
0	3643	5879.775711413134	6
0	3645	5881.177652268273	5
0	3647	5881.543653484827	4
0	3649	5891.520201898612	3
0	3651	5892.984599184265	2
0	3653	5906.508337396777	1
0	3655	5910.774601982203	2
0	3658	5911.448995263186	3
0	3661	5914.598348508295	4
0	3664	5931.395743883872	5
0	3667	5932.964980525961	6
0	3670	5945.68171578174	7
0	3673	5954.556240005792	8
0	3675	5959.87552891918	7
0	3678	5964.034059758311	8
0	3680	5964.086996476922	9
0	3682	5964.328276618126	8
0	3685	5970.650605395651	9
0	3687	5970.808356918669	8
0	3690	5971.191187930459	7
0	3693	5975.032973405799	8
0	3695	5976.951453604958	7
0	3698	5979.625933827852	6
0	3700	5991.068649917381	7
0	3703	5997.877200259428	6
0	3705	6000.605695570865	7
0	3708	6004.575730807281	8
0	3710	6004.612206470404	9
0	3712	6016.433462310207	10
0	3714	6019.015617263999	9
0	3717	6019.567145683666	10
0	3719	6020.072990095979	11
0	3721	6021.30421526265	12
0	3723	6025.111821337928	11
0	3726	6027.284177228155	10
0	3729	6028.249756642974	9
0	3732	6028.452163178024	8
0	3735	6028.993663341785	7
0	3738	6035.964649789274	6
0	3740	6053.265651409575	7
0	3743	6054.284352867052	8
0	3745	6056.427107300681	7
0	3748	6059.759898058441	8
0	3750	6061.683869749174	7
0	3753	6062.570794545055	6
0	3755	6067.065873078399	5
0	3757	6069.501367541536	4
0	3759	6082.175139108861	5
0	3762	6092.400354459475	4
0	3764	6092.560230629703	3
0	3766	6098.343050899175	4
0	3769	6098.962217823899	5
0	3772	6100.946216240158	6
0	3775	6106.095350574692	7
0	3778	6106.174995229156	8
0	3780	6109.457401517234	9
0	3782	6110.999294850353	8
0	3785	6115.397441642667	7
0	3788	6118.736716684649	8
0	3790	6119.178763627421	7
0	3793	6128.642765302594	6
0	3795	6140.343341566441	7
0	3798	6142.020084426323	8
0	3800	6147.599454235968	7
0	3803	6148.813929766085	6
0	3805	6149.010489695056	7
0	3808	6152.435360905976	8
0	3810	6153.639435511829	7
0	3813	6154.336385299593	6
0	3815	6154.39614182036	5
0	3817	6161.543660998851	6
0	3820	6163.44930247965	5
0	3822	6165.668513413322	4
0	3824	6171.111611694204	3
0	3826	6171.701966358291	2
0	3828	6181.467574926803	3
0	3831	6186.431646860336	4
0	3834	6187.561563916531	3
0	3836	6190.799061107407	4
0	3839	6199.568133669172	5
0	3842	6207.069631440156	4
0	3844	6216.455613491081	3
0	3846	6223.358164200217	4
0	3849	6223.889604768414	5
0	3852	6228.436241769801	4
0	3854	6230.106270669243	5
0	3857	6231.198164432622	4
0	3859	6236.060759448577	5
0	3862	6236.183612557786	6
0	3865	6239.213424844337	5
0	3867	6251.656814058562	4
0	3869	6252.438010372864	5
0	3872	6256.204340501214	6
0	3875	6262.22588462536	7
0	3878	6267.438385277064	6
0	3880	6278.972710511349	5
0	3882	6281.098584415172	6
0	3885	6285.204629064631	7
0	3888	6285.347539058302	8
0	3890	6286.101725951112	9
0	3892	6287.561685151983	8
0	3895	6289.972496294901	9
0	3897	6293.666670906786	8
0	3900	6293.896269469519	7
0	3903	6298.434789143243	8
0	3905	6301.805259232231	9
0	3907	6306.228275503789	8
0	3910	6311.027035937804	9
0	3912	6315.94939472798	10
0	3914	6325.538337435369	11
0	3916	6328.544817488458	12
0	3918	6329.957308959374	11
0	3921	6330.809434509297	12
0	3923	6335.718105270365	11
0	3926	6339.146435378553	12
0	3928	6343.337372484345	13
0	3930	6348.936342071931	12
0	3933	6353.198189656321	11
0	3936	6354.605585452965	12
0	3938	6359.793729128551	13
0	3940	6363.967828222789	12
0	3943	6364.313853718785	13
0	3945	6366.968784695963	14
0	3947	6369.412871292812	13
0	3950	6379.52089581583	12
0	3953	6380.398032421858	11
0	3956	6380.707530494054	10
0	3959	6382.048400737962	11
0	3961	6386.026449036024	12
0	3963	6401.402284764339	11
0	3966	6402.798516287597	10
0	3969	6410.75776627873	9
0	3972	6418.074275365853	8
0	3975	6418.392435228297	9
0	3977	6418.865474100223	10
0	3979	6420.830823199897	9
0	3982	6422.807802166508	8
0	3985	6424.266312346216	7
0	3988	6428.3035785787	6
0	3990	6431.209828370243	5
0	3992	6431.916665882205	4
0	3994	6433.096303947749	3
0	3996	6434.598971426024	4
0	3999	6440.134229567726	5
0	4002	6441.083814829266	4
0	4004	6458.862628010687	3
0	4006	6459.242663809991	4
0	4009	6463.568486264344	5
0	4012	6465.866538193753	6
0	4015	6467.349912105992	5
0	4017	6469.985937719499	6
0	4020	6472.679221426352	5
0	4022	6474.291946617558	6
0	4025	6476.008380124554	7
0	4028	6479.079892308109	8
0	4030	6482.580167470727	7
0	4033	6483.363938919081	6
0	4035	6484.590052138636	7
0	4038	6488.413577936703	8
0	4040	6496.766912329346	9
0	4042	6504.779567041881	10
0	4044	6510.308143747667	9
0	4047	6512.801171774943	10
0	4049	6514.440699562918	9
0	4052	6514.740356040877	8
0	4055	6518.730007567344	7
0	4058	6526.850398393165	6
0	4060	6528.667561660752	7
0	4063	6535.658386966483	6
0	4065	6544.081066411894	7
0	4068	6548.270981965776	8
0	4070	6548.423543361821	9
0	4072	6551.11416766321	8
0	4075	6554.451183710343	7
0	4078	6556.270804488091	6
0	4080	6558.889425266378	5
0	4082	6560.094701260148	4
0	4084	6561.785792091181	5
0	4087	6563.582463589243	6
0	4090	6570.801555076883	7
0	4093	6573.744223908341	6
0	4095	6577.582474418684	5
0	4097	6577.844661928756	6
0	4100	6584.344528194232	7
0	4103	6588.607480447409	6
0	4105	6605.519466991104	7
0	4108	6605.538872278273	8
0	4110	6613.91075791736	7
0	4113	6615.503199884984	6
0	4115	6618.48918753649	5
0	4117	6621.187266264389	4
0	4119	6621.682579018618	5
0	4122	6630.465227877501	6
0	4125	6635.256943256796	7
0	4128	6635.422266860316	6
0	4130	6643.680599116231	7
0	4133	6644.063812732097	6
0	4135	6658.577924996866	5
0	4137	6664.436226505536	4
0	4139	6669.719492357924	3
0	4141	6680.615544405439	4
0	4144	6693.898802395806	5
0	4147	6695.132326779027	6
0	4150	6696.686967067665	5
0	4152	6696.722581903944	4
0	4154	6699.504495032742	5
0	4157	6702.506762264261	6
0	4160	6703.210026445313	5
0	4162	6703.781794463708	6
0	4165	6703.789220272442	7
0	4168	6704.980630731922	6
0	4170	6709.224997636369	7
0	4173	6712.913102840134	8
0	4175	6713.67242787501	9
0	4177	6715.79277390024	10
0	4179	6721.356044228496	9
0	4182	6722.499741789936	10
0	4184	6724.90664347181	11
0	4186	6726.81234007943	10
0	4189	6731.601367393165	11
0	4191	6732.565695329208	10
0	4194	6734.4592194699	9
0	4197	6735.042379273929	8
0	4200	6742.054912583906	7
0	4203	6746.391859415636	6
0	4205	6750.642817003308	5
0	4207	6757.536138769221	4
0	4209	6758.18931758813	5
0	4212	6763.930612931851	4
0	4214	6765.6988024879	5
0	4217	6767.068449229422	4
0	4219	6769.099546726796	5
0	4222	6769.817561105511	4
0	4224	6785.949129951671	5
0	4227	6785.987821283761	6
0	4230	6788.874185660297	5
0	4232	6796.338977036284	6
0	4235	6800.550882812661	5
0	4237	6801.84228452372	4
0	4239	6804.732419476802	5
0	4242	6814.810535765952	6
0	4245	6815.368891378571	5
0	4247	6816.218743344909	4
0	4249	6822.390948861435	3
0	4251	6837.502641859306	4
0	4254	6844.29479662551	5
0	4257	6845.613035497675	4
0	4259	6849.936624449548	5
0	4262	6850.943498295258	6
0	4265	6854.883608075273	5
0	4267	6859.938965797765	6
0	4270	6860.052281337271	5
0	4272	6865.115400532563	4
0	4274	6869.554464929989	3
0	4276	6871.564702260503	4
0	4279	6879.320003640724	3
0	4281	6894.262363653863	2
0	4283	6902.424145875584	3
0	4286	6915.215495258255	4
0	4289	6919.686205978038	5
0	4292	6928.817545507797	4
0	4294	6939.161856501896	3
0	4296	6949.863713423713	4
0	4299	6952.383319424831	3
0	4301	6961.51587048992	4
0	4304	6962.640207686409	3
0	4306	6963.973134937041	4
0	4309	6964.557361347396	5
0	4312	6966.37489261292	6
0	4315	6972.159676067841	5
0	4317	6972.308408542133	4
0	4319	6974.019419082428	5
0	4322	6974.626834807696	6
0	4325	6978.519360640674	7
0	4328	6979.239409881406	8
0	4330	6981.8645639022	7
0	4333	6996.71055992975	6
0	4335	6997.345003174254	7
0	4338	6997.534914930937	6
0	4340	6997.607208032285	5
0	4342	7000.522114615263	6
0	4345	7003.486813989002	7
0	4348	7009.778277225048	6
0	4350	7014.056361098804	5
0	4352	7022.261821818097	6
0	4355	7024.788588749213	7
0	4358	7025.051792948201	6
0	4360	7026.191749898628	5
0	4362	7026.327195021103	6
0	4365	7028.463017924494	5
0	4367	7029.93561005683	6
0	4370	7030.809172554635	7
0	4373	7031.061705770778	8
0	4375	7038.757586833204	7
0	4378	7039.916760643277	8
0	4380	7043.336791039388	9
0	4382	7045.778112058156	8
0	4385	7048.200141211001	9
0	4387	7049.989965383682	10
0	4389	7050.200788291002	11
0	4391	7051.617969137835	10
0	4394	7060.588988883422	9
0	4397	7063.733833514184	10
0	4399	7066.215040027065	11
0	4401	7067.067864574544	12
0	4403	7070.741095292487	11
0	4406	7076.735127326597	12
0	4408	7076.991145833687	13
0	4410	7081.383605789216	12
0	4413	7082.182031090145	11
0	4416	7083.466812698267	10
0	4419	7083.477459215776	11
0	4421	7086.242074294765	10
0	4424	7088.951835569832	9
0	4427	7089.12347923549	10
0	4429	7092.02367703337	9
0	4432	7105.447693990099	10
0	4434	7107.294988397466	9
0	4437	7112.898148223558	10
0	4439	7116.410820435871	11
0	4441	7121.666251174153	12
0	4443	7126.117088450106	13
0	4445	7127.207735144602	12
0	4448	7127.326165697596	13
0	4450	7132.544016801013	14
0	4452	7134.682118248068	13
0	4455	7138.639977623087	14
0	4457	7141.172664482834	15
0	4459	7144.622630924306	14
0	4462	7146.296874923327	13
0	4465	7152.257236296168	12
0	4468	7154.263820906751	13
0	4470	7156.606743686727	14
0	4472	7158.049800400933	13
0	4475	7163.611941974115	12
0	4478	7171.840356045876	13
0	4480	7178.502905620275	12
0	4483	7179.231794609652	11
0	4486	7189.753837387767	12
0	4488	7192.138852248893	11
0	4491	7198.058366389065	10
0	4494	7198.729484271111	9
0	4497	7200.367835371273	8
0	4500	7207.45704680492	9
0	4502	7208.443556716966	8
0	4505	7213.123717914135	7
0	4508	7214.475304321246	6
0	4510	7214.97416415307	7
0	4513	7227.094889337411	6
0	4515	7227.37094821742	7
0	4518	7228.786176067802	6
0	4520	7229.652734494777	7
0	4523	7232.017751973689	6
0	4525	7234.352240458335	5
0	4527	7234.49051690353	4
0	4529	7235.966604207823	3
0	4531	7252.107152126025	2
0	4533	7252.715088716977	3
0	4536	7257.714386561395	4
0	4539	7260.871375731729	5
0	4542	7267.524551635947	6
0	4545	7267.857265182554	5
0	4547	7269.068597870156	6
0	4550	7273.671596937019	5
0	4552	7279.725862238313	4
0	4554	7282.35607012896	3
0	4556	7301.058214990636	2
0	4558	7303.432924589107	1
0	4560	7305.864435874522	2
0	4563	7310.354941152188	1
0	4565	7316.122384513009	2
0	4568	7317.677491699861	3
0	4571	7325.31428420231	4
0	4574	7333.101463020411	5
0	4577	7333.249437078545	6
0	4580	7334.446729935629	7
0	4583	7343.995582787064	6
0	4585	7348.214595185192	5
0	4587	7351.464212112236	6
0	4590	7353.068639236462	5
0	4592	7353.122396509176	4
0	4594	7363.144227029604	5
0	4597	7366.985321321087	4
0	4599	7367.993721991271	3
0	4601	7373.600169643021	4
0	4604	7374.184232067259	5
0	4607	7377.97813471964	6
0	4610	7391.05570233056	5
0	4612	7391.469739874759	4
0	4614	7393.990547159105	5
0	4617	7402.262100085235	6
0	4620	7411.944975103648	7
0	4623	7413.699611576621	6
0	4625	7416.678506286947	7
0	4628	7423.657308786513	6
0	4630	7424.274511635618	5
0	4632	7425.035979512431	6
0	4635	7426.570572454428	7
0	4638	7427.928747636216	6
0	4640	7436.162481530346	5
0	4642	7439.796960295144	6
0	4645	7442.933756267303	5
0	4647	7444.373520229299	6
0	4650	7447.170145077801	7
0	4653	7451.425903192246	8
0	4655	7457.156268987758	7
0	4658	7458.436858104565	8
0	4660	7458.583772672542	9
0	4662	7465.359226245463	8
0	4665	7465.374083623578	9
0	4667	7465.383516851531	10
0	4669	7466.012536442082	9
0	4672	7471.568347838485	8
0	4675	7480.220423113922	9
0	4677	7490.468694382016	8
0	4680	7491.346291591668	9
0	4682	7497.228290013529	10
0	4684	7498.449616629579	9
0	4687	7501.533862607809	8
0	4690	7508.985889321651	9
0	4692	7509.319572875541	10
0	4694	7518.684261350117	11
0	4696	7529.929037663934	10
0	4699	7537.963693129415	11
0	4701	7539.351842023894	10
0	4704	7539.614073674837	11
0	4706	7542.740651104742	12
0	4708	7546.52622826858	11
0	4711	7547.573725902792	10
0	4714	7549.533885246264	9
0	4717	7551.834485173862	10
0	4719	7553.256592178738	9
0	4722	7555.126317570297	8
0	4725	7556.854200197021	7
0	4728	7559.861164083161	6
0	4730	7561.273505480822	5
0	4732	7561.550136920359	6
0	4735	7561.80893814647	7
0	4738	7565.763495329012	6
0	4740	7575.742621303509	7
0	4743	7584.394789187382	6
0	4745	7592.830636879257	7
0	4748	7596.243955264739	6
0	4750	7600.336355971024	5
0	4752	7600.938470702712	4
0	4754	7604.18915347212	5
0	4757	7604.404588657045	6
0	4760	7613.626667047708	7
0	4763	7620.80002119356	8
0	4765	7621.194597721702	7
0	4768	7622.863177986731	8
0	4770	7623.156682433984	9
0	4772	7625.379591159262	8
0	4775	7627.157716072182	9
0	4777	7628.567367970794	8
0	4780	7630.35005440658	7
0	4783	7634.85887571725	8
0	4785	7634.954727759255	7
0	4788	7643.705469620938	6
0	4790	7646.070573515492	7
0	4793	7646.25489288717	8
0	4795	7646.728502645913	7
0	4798	7650.724666923446	6
0	4800	7656.364698427555	5
0	4802	7658.906428300877	4
0	4804	7679.265317121329	3
0	4806	7686.600805783818	4
0	4809	7687.280280825219	3
0	4811	7695.438678797257	4
0	4814	7696.498686558348	3
0	4816	7701.329981631475	2
0	4818	7711.559229747138	3
0	4821	7711.897150925012	2
0	4823	7718.458169385802	3
0	4826	7722.462713926481	4
0	4829	7722.566482487039	3
0	4831	7727.542657649695	2
0	4833	7727.641081043904	3
0	4836	7733.996366092178	2
0	4838	7737.64914753404	3
0	4841	7740.458076288072	4
0	4844	7741.80661127637	5
0	4847	7744.060118332115	4
0	4849	7746.726252224317	5
0	4852	7750.286886710867	6
0	4855	7751.576304664795	5
0	4857	7764.085544182156	6
0	4860	7767.438034665706	5
0	4862	7770.084682011061	6
0	4865	7771.846100479779	5
0	4867	7773.803600734671	6
0	4870	7779.301877143644	5
0	4872	7786.076153022317	4
0	4874	7787.379027868326	3
0	4876	7797.04255807692	4
0	4879	7798.301425465568	3
0	4881	7798.38223608657	4
0	4884	7806.280981433127	5
0	4887	7806.549096566082	4
0	4889	7806.983676583511	3
0	4891	7815.47393706703	4
0	4894	7817.488897343161	3
0	4896	7819.170555234197	2
0	4898	7825.930074390391	3
0	4901	7833.306625536054	4
0	4904	7848.304587462025	5
0	4907	7848.607953164976	4
0	4909	7854.633820944473	5
0	4912	7854.651248302345	6
0	4915	7854.899379270821	5
0	4917	7860.170454515102	6
0	4920	7861.1531402336	7
0	4923	7862.961747826855	8
0	4925	7863.552715965703	9
0	4927	7873.869958806453	8
0	4930	7874.25688271038	7
0	4933	7874.992972703879	8
0	4935	7883.37043136907	9
0	4937	7884.256314610038	8
0	4940	7890.462941266861	7
0	4943	7891.861398675957	8
0	4945	7894.238375418769	7
0	4948	7894.297492970885	6
0	4950	7932.137734370957	5
0	4952	7933.789641306994	6
0	4955	7941.783357818356	5
0	4957	7950.272345802812	6
0	4960	7960.351145070374	5
0	4962	7962.955097820455	6
0	4965	7966.217184000532	5
0	4967	7970.655408861145	6
0	4970	7971.360020412116	5
0	4972	7976.937203824795	4
0	4974	7977.023668665825	5
0	4977	7978.502403762068	4
0	4979	7984.569248043248	3
0	4981	7985.851199656652	4
0	4984	7991.089688690036	3
0	4986	7992.534075806547	2
0	4988	7998.01363778648	3
0	4991	8001.766614751305	4
0	4994	8005.585268837268	5
0	4997	8009.132706127385	6
0	5000	8009.541455235897	7
0	5003	8010.170857713471	6
0	5005	8012.009232894417	5
0	5007	8014.154538820074	6
0	5010	8018.787325446434	7
0	5013	8023.886674674234	6
0	5015	8024.897946770067	7
0	5018	8030.514248398426	6
0	5020	8032.685602148041	7
0	5023	8037.065209585499	6
0	5025	8038.970790771607	5
0	5027	8042.472211415029	4
0	5029	8053.467928696302	3
0	5031	8079.438953794185	4
0	5034	8085.173373564106	5
0	5037	8088.307797981882	6
0	5040	8093.590513679509	7
0	5043	8095.181884676025	8
0	5045	8095.365327126633	7
0	5048	8096.899419445575	8
0	5050	8098.070699619711	9
0	5052	8102.50452855476	10
0	5054	8106.231834532583	9
0	5057	8111.686069173715	8
0	5060	8112.327933142446	7
0	5063	8114.532259228005	8
0	5065	8115.275046472337	9
0	5067	8116.260705601496	10
0	5069	8117.012503943331	9
0	5072	8120.318942378287	8
0	5075	8133.155884324004	7
0	5078	8134.120337254771	6
0	5080	8135.431581542319	5
0	5082	8136.641441803882	6
0	5085	8137.421326818561	7
0	5088	8151.642281299184	6
0	5090	8155.036636633447	5
0	5092	8167.321989261019	4
0	5094	8169.901464608091	5
0	5097	8183.18003969618	4
0	5099	8184.017290579361	3
0	5101	8190.38112260644	2
0	5103	8215.492685073982	3
0	5106	8222.532269269079	2
0	5108	8222.79913157756	1
0	5110	8224.688526992277	2
0	5113	8237.368905725425	1
0	5115	8243.127853153536	2
0	5118	8248.566185298508	1
0	5120	8250.730055805847	2
0	5123	8252.190305333667	1
0	5125	8263.242804414456	2
0	5128	8266.590895463993	1
0	5130	8274.272287522854	2
0	5133	8276.543219919395	3
0	5136	8289.326659943862	4
0	5139	8290.972301058484	5
0	5142	8291.111123507468	6
0	5145	8294.059445786159	5
0	5147	8297.269905064953	4
0	5149	8300.17451794227	5
0	5152	8300.503789920538	4
0	5154	8302.272002546352	5
0	5157	8302.746851519327	6
0	5160	8317.360361727469	7
0	5163	8318.405284361773	6
0	5165	8320.695751854159	5
0	5167	8322.460586131093	6
0	5170	8323.218609985578	5
0	5172	8329.772621734118	4
0	5174	8331.166595539848	5
0	5177	8331.504288114321	4
0	5179	8342.954563152249	3
0	5181	8346.684387315221	2
0	5183	8351.150407598528	3
0	5186	8353.126403221248	4
0	5189	8360.958640570673	5
0	5192	8361.617383223984	4
0	5194	8362.559801290831	5
0	5197	8365.694869632091	4
0	5199	8366.021565149367	5
0	5202	8369.200233494367	6
0	5205	8380.946951997669	5
0	5207	8384.28944512431	6
0	5210	8389.793323581931	7
0	5213	8390.665121324918	8
0	5215	8390.760389052402	9
0	5217	8398.900117808141	10
0	5219	8400.184181121168	9
0	5222	8405.252000578901	10
0	5224	8410.09251222607	9
0	5227	8413.350882744163	10
0	5229	8421.965436633693	11
0	5231	8424.828046663989	10
0	5234	8426.071348915101	9
0	5237	8429.203707657651	8
0	5240	8430.01574137797	7
0	5243	8433.067827347361	6
0	5245	8435.360930233532	5
0	5247	8436.275836062864	4
0	5249	8439.489799591582	5
0	5252	8440.183133300652	4
0	5254	8450.500183669174	3
0	5256	8452.851283788592	2
0	5258	8455.240211014131	3
0	5261	8459.830089334046	2
0	5263	8469.150830064157	1
0	5265	8472.720762859091	2
0	5268	8475.445624216361	1
0	5270	8498.720293662377	2
0	5273	8500.802028385026	3
0	5276	8506.771793436868	4
0	5279	8509.320380064927	3
0	5281	8510.056423966425	2
0	5283	8511.061929673184	3
0	5286	8519.668930161203	4
0	5289	8523.095357831754	5
0	5292	8525.390675502125	6
0	5295	8532.217437719109	5
0	5297	8537.108584705742	4
0	5299	8539.780065110783	5
0	5302	8540.057230848326	4
0	5304	8540.462982143806	5
0	5307	8545.998222199332	6
0	5310	8546.407699213418	7
0	5313	8556.450253569126	8
0	5315	8558.906118548363	9
0	5317	8559.832331033726	10
0	5319	8561.554488941877	9
0	5322	8578.232105078539	8
0	5325	8579.59890384079	9
0	5327	8581.568235341795	8
0	5330	8582.905561456664	9
0	5332	8588.177694926978	10
0	5334	8591.779061051911	9
0	5337	8597.531305316183	8
0	5340	8599.956265855563	9
0	5342	8602.109285693162	8
0	5345	8602.643390145687	9
0	5347	8602.678753129593	10
0	5349	8609.022208004782	11
0	5351	8611.984707643941	12
0	5353	8613.259463822163	11
0	5356	8616.91200912454	10
0	5359	8617.803126313481	9
0	5362	8619.584199579885	8
0	5365	8620.833630701957	7
0	5368	8624.843647206876	6
0	5370	8628.036924804629	5
0	5372	8629.391763435797	6
0	5375	8630.547773325089	7
0	5378	8630.676396275724	8
0	5380	8641.776565909406	9
0	5382	8643.326623476502	8
0	5385	8648.698848438902	7
0	5388	8656.114937179399	6
0	5390	8657.481410888555	5
0	5392	8659.457571297928	6
0	5395	8659.944265546207	7
0	5398	8660.262062713174	6
0	5400	8662.145457291479	7
0	5403	8663.36213638717	8
0	5405	8674.038832808123	7
0	5408	8676.85602573084	8
0	5410	8681.042560673087	7
0	5413	8682.323742936538	6
0	5415	8682.586959379087	7
0	5418	8688.443115368029	6
0	5420	8691.495409048336	7
0	5423	8698.953489719422	6
0	5425	8699.750839049363	5
0	5427	8700.260263053015	6
0	5430	8700.561574533432	5
0	5432	8700.966670251086	4
0	5434	8708.858875110081	5
0	5437	8711.276408116063	6
0	5440	8715.008865385854	5
0	5442	8721.51701808563	4
0	5444	8722.798843793216	5
0	5447	8725.18072640708	4
0	5449	8735.092399026924	3
0	5451	8735.262128725845	4
0	5454	8737.935829845754	3
0	5456	8745.576059297326	4
0	5459	8752.31328145764	3
0	5461	8753.021392467816	2
0	5463	8767.703982706501	3
0	5466	8780.640035617837	4
0	5469	8783.538461574938	3
0	5471	8793.414661776253	4
0	5474	8795.477148922463	3
0	5476	8798.463593992245	4
0	5479	8799.229297189953	5
0	5482	8807.524116211664	4
0	5484	8810.787743311683	5
0	5487	8813.894823171337	4
0	5489	8820.769781624729	5
0	5492	8822.660677006689	6
0	5495	8825.996839266823	7
0	5498	8826.312444171542	6
0	5500	8828.926953726906	7
0	5503	8831.688663790342	6
0	5505	8837.59375415376	7
0	5508	8838.084010525843	6
0	5510	8838.179412928584	7
0	5513	8841.223302074413	6
0	5515	8844.024523192035	7
0	5518	8844.645483159319	6
0	5520	8850.564335758152	5
0	5522	8853.850851693519	6
0	5525	8856.717682649518	5
0	5527	8857.337319443931	4
0	5529	8863.322186154743	5
0	5532	8864.449876581797	6
0	5535	8866.185461255381	7
0	5538	8866.346220180987	6
0	5540	8868.501068343132	7
0	5543	8874.02227186905	6
0	5545	8880.453611503327	7
0	5548	8881.107322493482	8
0	5550	8882.231488078601	7
0	5553	8885.047537808635	6
0	5555	8886.46264462547	5
0	5557	8893.282405882424	6
0	5560	8893.804009924935	5
0	5562	8894.388853235298	4
0	5564	8897.501437305466	3
0	5566	8901.983245333668	4
0	5569	8908.04522836248	3
0	5571	8920.140415195134	4
0	5574	8922.83598113015	3
0	5576	8929.483118151735	2
0	5578	8934.396916916845	1
0	5580	8935.837900151309	2
0	5583	8951.196350311417	1
0	5585	8967.465375592839	2
0	5588	8972.13034339391	1
0	5590	8982.53600759516	2
0	5593	8986.924823003268	1
0	5595	8987.929766317199	2
0	5598	8990.293687425549	3
0	5601	8995.270144913472	4
0	5604	8996.027118698666	5
0	5607	8998.041836101559	4
0	5609	9001.293477146425	5
0	5612	9002.294617433513	4
0	5614	9003.42058449667	5
0	5617	9006.049182732915	6
0	5620	9016.3068272754	5
0	5622	9016.867752518616	4
0	5624	9025.569665095614	3
0	5626	9028.144844846421	2
0	5628	9036.811309950092	1
0	5630	9067.706344035142	2
0	5633	9073.104043713179	1
0	5635	9075.186771371192	2
0	5638	9095.590000126603	1
0	5640	9097.901798000029	2
0	5643	9111.698937124881	3
0	5646	9111.933220508354	2
0	5648	9120.453829037101	3
0	5651	9120.524026053055	4
0	5654	9124.895610704463	5
0	5657	9125.513392507479	4
0	5659	9127.147964570558	5
0	5662	9131.271621683866	6
0	5665	9138.615822260126	7
0	5668	9142.38587016491	8
0	5670	9145.674414330189	7
0	5673	9146.02291370634	6
0	5675	9146.276130930323	5
0	5677	9150.127599861094	6
0	5680	9150.724242546062	5
0	5682	9151.64192011043	4
0	5684	9155.396843832435	5
0	5687	9156.533368687689	4
0	5689	9160.510556039136	5
0	5692	9161.777584013594	4
0	5694	9163.141213097582	5
0	5697	9167.833690995169	4
0	5699	9167.96100581362	3
0	5701	9168.732557899652	4
0	5704	9169.380764132455	5
0	5707	9180.528353216248	6
0	5710	9186.586819581697	5
0	5712	9187.39979170041	6
0	5715	9188.049148249755	5
0	5717	9201.307028581071	6
0	5720	9203.448678628224	5
0	5722	9216.814906833546	6
0	5725	9217.471980483017	5
0	5727	9217.593843649658	4
0	5729	9219.88234214782	5
0	5732	9222.908187745014	6
0	5735	9229.242375077174	7
0	5738	9236.221424105182	8
0	5740	9240.717038688476	9
0	5742	9251.966973174793	10
0	5744	9253.476345540214	9
0	5747	9253.619564025031	10
0	5749	9254.315911328001	9
0	5752	9254.641421900173	8
0	5755	9256.679522899409	9
0	5757	9258.241560733929	8
0	5760	9259.368286135452	9
0	5762	9259.385131343765	8
0	5765	9259.935595214965	9
0	5767	9261.376761583915	8
0	5770	9266.939244772505	7
0	5773	9269.633919965285	6
0	5775	9273.563582226922	5
0	5777	9292.47164890589	4
0	5779	9301.104662200094	5
0	5782	9302.994990239336	4
0	5784	9304.134022791618	5
0	5787	9304.506889508681	4
0	5789	9305.807163227902	3
0	5791	9307.386473259845	4
0	5794	9307.435449272049	5
0	5797	9307.866739453369	6
0	5800	9308.06085193936	7
0	5803	9314.63658133015	8
0	5805	9325.679594077537	7
0	5808	9326.476974115662	8
0	5810	9338.490164539863	9
0	5812	9338.764794433984	8
0	5815	9342.612673401633	9
0	5817	9344.389201008396	8
0	5820	9345.148561865637	9
0	5822	9347.810968344921	8
0	5825	9351.356303681885	7
0	5828	9352.435223032922	6
0	5830	9358.457481377778	5
0	5832	9364.736789232513	6
0	5835	9365.333513977339	7
0	5838	9386.294598351023	6
0	5840	9387.233861393356	5
0	5842	9387.830426923814	4
0	5844	9401.681307118752	5
0	5847	9406.802897760222	6
0	5850	9414.471292969533	7
0	5853	9414.658352975594	6
0	5855	9429.822955256073	5
0	5857	9430.866258669536	6
0	5860	9431.37424504723	7
0	5863	9442.150531800133	8
0	5865	9445.999402606922	9
0	5867	9449.507730375382	10
0	5869	9449.939349067503	11
0	5871	9450.171160426109	10
0	5874	9451.41177792074	9
0	5877	9456.122234328807	8
0	5880	9457.079534370792	7
0	5883	9459.543870701461	6
0	5885	9467.795539314763	7
0	5888	9468.522878912217	6
0	5890	9468.724412133615	7
0	5893	9480.101759826153	8
0	5895	9483.258996872112	7
0	5898	9484.343993421807	6
0	5900	9487.405923240039	5
0	5902	9494.490696666624	6
0	5905	9497.618255504378	7
0	5908	9498.626897902273	6
0	5910	9500.894393149697	5
0	5912	9504.11435649144	4
0	5914	9505.387062930123	5
0	5917	9505.532429672579	4
0	5919	9509.357191242282	3
0	5921	9524.337075960983	4
0	5924	9527.798997815677	3
0	5926	9529.672431543904	2
0	5928	9541.464791226027	1
0	5930	9541.474055966473	0
0	5932	9544.105911161486	1
0	5935	9548.689255459038	2
0	5938	9549.199407635429	3
0	5941	9552.859733914969	4
0	5944	9557.057533280102	5
0	5947	9560.141949482526	6
0	5950	9568.50430812965	5
0	5952	9570.22539423459	6
0	5955	9573.312887047844	5
0	5957	9583.32040994054	4
0	5959	9587.317637000238	3
0	5961	9589.470074086462	4
0	5964	9590.059374169412	5
0	5967	9590.061835050809	4
0	5969	9591.556683239662	3
0	5971	9591.851919059515	2
0	5973	9601.242331812845	1
0	5975	9601.321223431687	2
0	5978	9602.223175848354	3
0	5981	9604.929261124216	2
0	5983	9605.233207575708	1
0	5985	9614.37569793647	2
0	5988	9617.914543936606	3
0	5991	9626.109936177956	4
0	5994	9642.499907092029	3
0	5996	9647.877939762407	2
0	5998	9648.82930667456	3
0	6001	9655.772609307116	2
0	6003	9659.440882310505	3
0	6006	9664.874047529299	2
0	6008	9672.830133454077	3
0	6011	9672.915860157269	4
0	6014	9680.571690420972	5
0	6017	9685.048299243821	6
0	6020	9688.910796181132	7
0	6023	9697.814025714511	6
0	6025	9701.202966818191	7
0	6028	9702.253129804331	8
0	6030	9703.543660322521	7
0	6033	9710.720645545449	6
0	6035	9713.069319295934	5
0	6037	9716.920777987167	4
0	6039	9722.246808308059	5
0	6042	9723.711583578388	6
0	6045	9725.556389568982	5
0	6047	9726.476733938498	4
0	6049	9729.624797610944	5
0	6052	9729.817025495734	4
0	6054	9738.157823087445	5
0	6057	9741.950046099817	4
0	6059	9747.490386360634	5
0	6062	9748.508529568488	6
0	6065	9749.862353504195	5
0	6067	9758.599558813603	4
0	6069	9772.790133216086	5
0	6072	9774.596480370754	6
0	6075	9775.265317038818	5
0	6077	9777.16194274499	4
0	6079	9779.716603470008	3
0	6081	9781.126649990893	4
0	6084	9781.856653539943	5
0	6087	9784.104834721622	4
0	6089	9789.063931778368	5
0	6092	9791.039062425754	6
0	6095	9791.283634416785	5
0	6097	9793.275873420532	4
0	6099	9795.597253157004	5
0	6102	9796.070748861681	4
0	6104	9800.739641044374	5
0	6107	9803.544963840426	6
0	6110	9806.13361358267	5
0	6112	9806.588774055752	6
0	6115	9810.744151598243	5
0	6117	9816.158671914692	6
0	6120	9823.769557542764	5
0	6122	9825.732572388801	6
0	6125	9830.751520175972	7
0	6128	9839.751880415356	6
0	6130	9843.117170233066	5
0	6132	9848.010445301846	4
0	6134	9849.653331548692	5
0	6137	9849.959820296332	6
0	6140	9856.257772524751	7
0	6143	9858.394577078555	8
0	6145	9860.1845209225	9
0	6147	9860.442358625628	8
0	6150	9860.9902690953	7
0	6153	9862.797315604213	6
0	6155	9870.086560515375	5
0	6157	9881.382697466122	4
0	6159	9889.120100670588	5
0	6162	9893.817481604992	6
0	6165	9895.061391460848	5
0	6167	9902.345442540219	4
0	6169	9902.943491679633	3
0	6171	9904.593099757324	4
0	6174	9913.876323849828	5
0	6177	9916.66953740715	4
0	6179	9920.755879505177	5
0	6182	9920.784890502304	4
0	6184	9924.224907335918	5
0	6187	9925.783793111819	4
0	6189	9926.889397133255	5
0	6192	9932.14088714879	6
0	6195	9932.818047840198	7
0	6198	9935.470396699655	6
0	6200	9942.88820500306	5
0	6202	9948.511297795085	6
0	6205	9952.517436929402	5
0	6207	9957.17178751464	6
0	6210	9957.243024780423	5
0	6212	9960.409029510367	4
0	6214	9961.665569266698	3
0	6216	9967.647374549562	4
0	6219	9970.954433922315	5
0	6222	9971.612132702203	6
0	6225	9971.743188285128	5
0	6227	9974.119591530266	4
0	6229	9981.938899503257	3
0	6231	9984.593401137636	2
0	6233	9988.458266470961	3
0	6236	9988.843432091895	4
0	6239	9992.387252242165	3
0	6241	10013.510088727765	4
0	6244	10025.885737678108	3
0	6246	10035.503492841705	4
0	6249	10047.648944601501	5
0	6252	10058.981921552954	6
0	6255	10059.933205279384	5
0	6257	10062.932841785785	6
0	6260	10063.743188388103	5
0	6262	10068.456681598583	4
0	6264	10082.256119159353	5
0	6267	10084.418389292166	4
0	6269	10085.728284056184	5
0	6272	10087.15155252163	6
0	6275	10090.743076895549	5
0	6277	10091.00475320621	6
0	6280	10091.135539515414	5
0	6282	10100.548493539884	6
0	6285	10103.904224463399	5
0	6287	10108.241305060877	4
0	6289	10111.989421827978	5
0	6292	10118.85345137241	6
0	6295	10119.70578899333	5
0	6297	10124.93292710494	6
0	6300	10128.568175024364	7
0	6303	10136.37247446115	6
0	6305	10141.606926662536	5
0	6307	10142.071889387299	6
0	6310	10143.509373615552	7
0	6313	10147.89618320419	8
0	6315	10151.656295443692	9
0	6317	10155.962515943975	10
0	6319	10156.212780690576	9
0	6322	10158.9494947195	8
0	6325	10161.764508295595	9
0	6327	10170.495878352391	8
0	6330	10172.862340720537	9
0	6332	10173.495897098529	8
0	6335	10174.349449570958	9
0	6337	10181.030620626272	10
0	6339	10186.369404857712	9
0	6342	10202.33003001867	8
0	6345	10207.469176014776	9
0	6347	10207.762354150132	10
0	6349	10207.850676567259	9
0	6352	10214.435856303185	8
0	6355	10220.363634460542	7
0	6358	10223.466610267576	8
0	6360	10227.172370311412	9
0	6362	10227.686504954671	10
0	6364	10230.14977060135	11
0	6366	10233.087729610108	12
0	6368	10233.684199214556	13
0	6370	10236.398037805952	14
0	6372	10236.679323109137	15
0	6374	10237.455122400948	16
0	6376	10239.44272934451	15
0	6379	10242.600425084815	16
0	6381	10243.846663646261	17
0	6383	10245.041828430241	18
0	6385	10250.313776025677	17
0	6388	10252.616512865442	18
0	6390	10253.265223599035	17
0	6393	10254.462895189119	16
0	6396	10255.036252392848	17
0	6398	10257.272188537688	16
0	6401	10261.38724161173	15
0	6404	10266.797481992729	14
0	6407	10267.190198288431	15
0	6409	10268.895765131776	16
0	6411	10268.943753684758	15
0	6414	10268.99004074057	16
0	6416	10273.77132668189	17
0	6418	10274.119656212225	16
0	6421	10297.881865653021	15
0	6424	10299.410434057878	14
0	6427	10302.518667492272	13
0	6430	10302.74651652418	12
0	6433	10303.132801012937	11
0	6436	10304.119518180288	12
0	6438	10305.995391103901	11
0	6441	10308.371759750814	10
0	6444	10318.08355555241	9
0	6447	10320.623709204474	8
0	6450	10321.77798473657	7
0	6453	10322.404003622235	6
0	6455	10325.904241067215	7
0	6458	10327.299437884013	6
0	6460	10328.32106985544	5
0	6462	10329.211559870431	4
0	6464	10330.549869244514	3
0	6466	10331.503473785948	2
0	6468	10339.111016632325	3
0	6471	10342.942222494088	4
0	6474	10343.143554694435	3
0	6476	10348.151466649746	4
0	6479	10348.634491060295	3
0	6481	10349.403866311692	4
0	6484	10357.668213478471	5
0	6487	10358.351109807929	4
0	6489	10364.408898960034	5
0	6492	10370.870162216852	6
0	6495	10371.408478408554	7
0	6498	10385.719323749326	6
0	6500	10386.303502120387	5
0	6502	10393.29107707678	4
0	6504	10398.408077586962	3
0	6506	10404.116625814769	2
0	6508	10414.142292705985	3
0	6511	10414.278469297597	4
0	6514	10419.093134917574	5
0	6517	10422.839867977337	4
0	6519	10427.747440775777	5
0	6522	10432.587662777913	4
0	6524	10435.978121756722	5
0	6527	10443.384468855481	6
0	6530	10446.296519325084	5
0	6532	10447.177995788496	4
0	6534	10452.114840276413	5
0	6537	10459.512045049158	6
0	6540	10463.640033536527	5
0	6542	10469.233617015803	6
0	6545	10472.79108757275	7
0	6548	10477.434426607336	8
0	6550	10477.623712902964	7
0	6553	10480.380051034262	8
0	6555	10481.643616305709	7
0	6558	10483.829406445367	8
0	6560	10484.444460699278	7
0	6563	10488.83695010522	6
0	6565	10494.03363861423	5
0	6567	10497.697410469121	6
0	6570	10499.585433111421	7
0	6573	10500.862801535977	6
0	6575	10506.168053072697	7
0	6578	10512.849285446278	8
0	6580	10514.585718874664	7
0	6583	10516.259213414997	8
0	6585	10520.694175057486	7
0	6588	10525.370568998944	8
0	6590	10534.331429290326	9
0	6592	10535.219882355628	10
0	6594	10542.787735714514	9
0	6597	10544.855478209497	10
0	6599	10547.900362810944	9
0	6602	10549.619377798974	8
0	6605	10555.086776972317	7
0	6608	10563.205476061147	8
0	6610	10566.864153666866	7
0	6613	10572.177209984605	8
0	6615	10573.89275678722	7
0	6618	10576.468476012014	8
0	6620	10580.327920826036	7
0	6623	10585.4120133221	8
0	6625	10585.836528946248	7
0	6628	10586.299045607372	6
0	6630	10586.839198757633	5
0	6632	10587.761177726734	6
0	6635	10589.38939511407	5
0	6637	10591.005248456125	4
0	6639	10591.631633751951	3
0	6641	10603.116318916941	4
0	6644	10603.197049258769	3
0	6646	10608.702409407841	2
0	6648	10608.811145639921	3
0	6651	10609.00093146617	2
0	6653	10614.805566123035	3
0	6656	10615.244053433239	4
0	6659	10621.902238488634	5
0	6662	10623.47299478033	6
0	6665	10627.916976070065	5
0	6667	10631.342817624144	4
0	6669	10635.860504511866	5
0	6672	10636.593653221831	4
0	6674	10639.151771128383	5
0	6677	10646.784789070429	6
0	6680	10651.847504075373	7
0	6683	10653.631080544743	6
0	6685	10656.515496675002	7
0	6688	10657.462747388005	8
0	6690	10658.530097819739	7
0	6693	10658.868293763672	8
0	6695	10666.196070312347	9
0	6697	10666.208152705897	8
0	6700	10668.034591628169	7
0	6703	10669.028479401106	6
0	6705	10671.912105211996	7
0	6708	10674.158487218213	8
0	6710	10683.072594132091	9
0	6712	10683.589791687691	10
0	6714	10688.174552118333	9
0	6717	10691.512487943066	10
0	6719	10692.548911515801	9
0	6722	10696.429916183794	8
0	6725	10697.733496006001	7
0	6728	10700.940350202155	8
0	6730	10711.404271318032	7
0	6733	10713.470761468464	8
0	6735	10716.162628743196	9
0	6737	10721.355090551808	8
0	6740	10729.122055441425	7
0	6743	10729.486753689281	8
0	6745	10732.488744195373	7
0	6748	10733.387497002831	6
0	6750	10736.147054251537	5
0	6752	10738.705410440636	6
0	6755	10742.174589735059	7
0	6758	10750.209268914475	8
0	6760	10754.940588846309	7
0	6763	10757.161880592032	6
0	6765	10760.006864797606	7
0	6768	10760.031896634413	8
0	6770	10760.499812258592	9
0	6772	10761.805702969302	8
0	6775	10762.623206871608	9
0	6777	10768.647698224228	8
0	6780	10770.149129124057	9
0	6782	10772.586344109319	10
0	6784	10772.872833340117	11
0	6786	10776.154387287256	10
0	6789	10776.754145895078	11
0	6791	10786.740400045119	10
0	6794	10791.799149476617	9
0	6797	10795.564072644693	8
0	6800	10795.925312827902	9
0	6802	10796.643942414156	8
0	6805	10797.739313682693	7
0	6808	10800.652976803901	6
0	6810	10806.837958498919	7
0	6813	10810.01517518054	6
0	6815	10810.076077446843	5
0	6817	10812.205911672465	6
0	6820	10812.989625568447	5
0	6822	10817.093877935371	4
0	6824	10818.047539788551	5
0	6827	10820.924436278202	4
0	6829	10824.948531466741	3
0	6831	10836.582220043986	4
0	6834	10840.025484395354	5
0	6837	10845.872595386971	6
0	6840	10853.029937375136	5
0	6842	10855.910889180704	4
0	6844	10860.299068976176	3
0	6846	10862.127525165613	2
0	6848	10871.060870634857	1
0	6850	10873.64078774261	2
0	6853	10880.751271903364	3
0	6856	10881.809426235505	4
0	6859	10884.435623660905	5
0	6862	10888.398190720493	6
0	6865	10890.781654183414	5
0	6867	10891.942353081616	6
0	6870	10894.411501366103	5
0	6872	10911.751264911814	4
0	6874	10916.20293453883	5
0	6877	10919.791936380936	4
0	6879	10920.951255247435	3
0	6881	10922.742156031825	4
0	6884	10924.050484308875	5
0	6887	10930.6351014759	6
0	6890	10934.886146043197	5
0	6892	10935.367973802151	6
0	6895	10936.548148853849	5
0	6897	10940.711696994225	6
0	6900	10952.842888219775	5
0	6902	10957.384190707281	4
0	6904	10961.200126184888	3
0	6906	10962.441025170051	2
0	6908	10963.368151960458	1
0	6910	10966.343738853051	2
0	6913	10996.85310263354	3
0	6916	11006.229415970318	4
0	6919	11009.512675944877	3
0	6921	11009.824686313494	4
0	6924	11017.857535110707	3
0	6926	11019.011005249673	4
0	6929	11022.739315420233	3
0	6931	11027.135007292425	2
0	6933	11035.651982352883	3
0	6936	11039.935406609243	4
0	6939	11045.405292867599	5
0	6942	11045.775852278865	6
0	6945	11050.085747907295	5
0	6947	11050.897720264952	4
0	6949	11051.111890741983	5
0	6952	11052.781871392878	6
0	6955	11054.046723495061	5
0	6957	11054.695083781946	4
0	6959	11061.436652535192	3
0	6961	11072.716369423333	2
0	6963	11077.721622012011	1
0	6965	11078.05018599271	2
0	6968	11082.819349249994	3
0	6971	11083.611913622601	2
0	6973	11086.702842999121	3
0	6976	11086.731297731074	4
0	6979	11094.647951602545	3
0	6981	11101.195646003718	2
0	6983	11101.287146911926	3
0	6986	11103.913226758926	2
0	6988	11109.447442207835	3
0	6991	11118.695783594011	4
0	6994	11119.306198085102	3
0	6996	11120.097238800627	2
0	6998	11124.5105700398	3
0	7001	11127.555297087132	4
0	7004	11137.849097471083	3
0	7006	11145.951540174586	2
0	7008	11148.182153010451	3
0	7011	11150.00700556627	4
0	7014	11153.72395288994	5
0	7017	11175.774938855697	4
0	7019	11177.541005701095	5
0	7022	11182.397441048767	4
0	7024	11194.617987254842	5
0	7027	11202.739292075128	4
0	7029	11204.320589008568	3
0	7031	11209.320105213715	4
0	7034	11211.332189725981	3
0	7036	11217.458131203372	4
0	7039	11219.558080625844	3
0	7041	11229.327465346915	2
0	7043	11229.566910224846	1
0	7045	11234.085928299964	2
0	7048	11236.458109392302	3
0	7051	11239.544015235767	4
0	7054	11242.060620042752	3
0	7056	11247.214568944205	4
0	7059	11247.686371350494	5
0	7062	11251.38106581168	4
0	7064	11256.312097949515	5
0	7067	11257.556068394154	4
0	7069	11258.081518929353	5
0	7072	11259.051597952819	4
0	7074	11259.321498159593	3
0	7076	11260.835142212193	4
0	7079	11264.859191737072	5
0	7082	11269.696229864211	6
0	7085	11271.022580568697	5
0	7087	11272.821019809951	6
0	7090	11277.769763025065	7
0	7093	11281.196985785412	6
0	7095	11281.586470158185	7
0	7098	11287.836488352975	6
0	7100	11288.900640409489	5
0	7102	11293.563720523371	4
0	7104	11294.365952452649	5
0	7107	11295.204690097469	4
0	7109	11297.104493633301	3
0	7111	11298.47863972633	2
0	7113	11299.214711570937	1
0	7115	11309.578166068877	0
0	7117	11311.532159344865	1
0	7120	11316.146373562574	2
0	7123	11319.452029653589	3
0	7126	11324.829752825737	2
0	7128	11329.601552022752	3
0	7131	11329.663311788768	4
0	7134	11334.937204683787	3
0	7136	11341.461853172798	4
0	7139	11343.778034620828	5
0	7142	11344.859996797783	6
0	7145	11346.26053998854	5
0	7147	11351.352271503723	6
0	7150	11353.016266163192	7
0	7153	11356.960811952616	6
0	7155	11358.119191137969	5
0	7157	11359.982333796633	4
0	7159	11363.991625191082	5
0	7162	11366.336831378458	4
0	7164	11372.913821949764	3
0	7166	11374.399596280087	4
0	7169	11378.347423243482	3
0	7171	11378.706307198379	2
0	7173	11381.672718624082	3
0	7176	11384.040064839586	4
0	7179	11393.902759198268	5
0	7182	11397.407386909928	4
0	7184	11398.931793673336	3
0	7186	11400.966000876796	4
0	7189	11405.753810883186	3
0	7191	11413.977206671564	4
0	7194	11415.963676615242	5
0	7197	11416.190689388131	4
0	7199	11417.517009485675	3
0	7201	11419.898412302433	2
0	7203	11421.16652363046	1
0	7205	11431.940609085575	2
0	7208	11433.392340850127	3
0	7211	11434.035016121498	2
0	7213	11445.0318605026	3
0	7216	11450.254215292565	2
0	7218	11458.521005653629	3
0	7221	11466.008763018652	4
0	7224	11467.465176392908	3
0	7226	11468.584651134344	4
0	7229	11474.584179404095	5
0	7232	11481.334739693906	4
0	7234	11483.63864544148	5
0	7237	11485.167080851803	4
0	7239	11494.505170615278	5
0	7242	11511.265147538285	4
0	7244	11514.13014127969	3
0	7246	11524.084943180904	4
0	7249	11527.372415366293	3
0	7251	11543.578481752161	2
0	7253	11548.960855725252	1
0	7255	11551.682856313986	0
0	7257	11564.135639943079	1
0	7260	11570.361730885058	2
0	7263	11576.08063908856	3
0	7266	11582.636269999887	4
0	7269	11593.586584650517	5
0	7272	11593.858866169966	6
0	7275	11594.395633194155	5
0	7277	11594.794056034054	6
0	7280	11598.026723574121	7
0	7283	11599.597043788896	8
0	7285	11607.794950272056	7
0	7288	11614.684819925239	6
0	7290	11626.249515597032	5
0	7292	11626.819853922411	4
0	7294	11627.120541080335	3
0	7296	11632.533047963851	4
0	7299	11638.588500115973	5
0	7302	11640.727663097444	4
0	7304	11642.870022401142	3
0	7306	11646.979598148416	4
0	7309	11655.703609704983	3
0	7311	11660.000883141193	2
0	7313	11664.02362439717	1
0	7315	11683.478319027556	0
0	7317	11683.502723735503	1
0	7320	11685.293010041398	2
0	7323	11693.900695221644	3
0	7326	11694.41206720555	4
0	7329	11695.77148940937	5
0	7332	11698.144652409375	4
0	7334	11700.101328993706	5
0	7337	11701.380891043401	6
0	7340	11708.719118048294	7
0	7343	11708.763423016313	8
0	7345	11710.162537533792	9
0	7347	11710.854999780414	8
0	7350	11721.335819073335	7
0	7353	11725.855614968596	8
0	7355	11726.346334916089	7
0	7358	11731.874642519007	6
0	7360	11732.391760960219	5
0	7362	11735.341159125845	4
0	7364	11737.182107336754	3
0	7366	11738.684419413811	4
0	7369	11743.026074987596	5
0	7372	11750.909005309567	6
0	7375	11752.956191329641	5
0	7377	11769.829441716433	4
0	7379	11773.110947202694	5
0	7382	11773.166451662527	4
0	7384	11775.371617424743	5
0	7387	11776.525079707001	4
0	7389	11777.463265859545	3
0	7391	11778.023912757778	4
0	7394	11782.839189606548	3
0	7396	11796.819073430338	2
0	7398	11802.376597782303	3
0	7401	11804.719258198953	4
0	7404	11809.598271348898	5
0	7407	11810.470547000377	4
0	7409	11812.113935567634	3
0	7411	11822.812660181464	4
0	7414	11833.396460797751	5
0	7417	11835.595521252276	6
0	7420	11835.874078398989	5
0	7422	11841.008568365483	4
0	7424	11849.118214088856	5
0	7427	11850.191538028618	4
0	7429	11858.388384458715	5
0	7432	11860.813673649917	4
0	7434	11863.246942559532	3
0	7436	11863.479473428053	4
0	7439	11864.587309872929	5
0	7442	11874.58936961844	4
0	7444	11883.290025274823	5
0	7447	11884.247799634251	4
0	7449	11889.747043895425	3
0	7451	11891.125956306768	4
0	7454	11896.664539170896	5
0	7457	11898.773151700873	4
0	7459	11906.883029283945	3
0	7461	11950.810684434842	2
0	7463	11967.856212528251	3
0	7466	11973.14812984992	2
0	7468	11974.995741793262	3
0	7471	11985.230909443068	4
0	7474	11987.529907521827	3
0	7476	11996.3493025455	2
0	7478	12006.230944680074	3
0	7481	12012.403949890021	4
0	7484	12024.571037276111	5
0	7487	12026.130321683113	6
0	7490	12027.217209311334	7
0	7493	12030.354619665373	8
0	7495	12035.457974271324	9
0	7497	12039.565085769149	10
0	7499	12040.575744808999	9
0	7502	12046.459408334834	8
0	7505	12051.836238403078	9
0	7507	12055.268838505688	10
0	7509	12056.686795011105	9
0	7512	12059.068245672868	10
0	7514	12061.335184893746	9
0	7517	12062.086708678329	10
0	7519	12066.740156053713	11
0	7521	12068.185626134414	12
0	7523	12071.467651033998	13
0	7525	12084.483720923897	12
0	7528	12092.412599316339	11
0	7531	12092.570571315944	10
0	7534	12095.247151693285	9
0	7537	12097.34577984341	8
0	7540	12098.05553132852	9
0	7542	12098.685448036837	8
0	7545	12104.803679570364	9
0	7547	12106.988844985865	10
0	7549	12107.993979195352	9
0	7552	12108.883300758558	8
0	7555	12109.943016249588	7
0	7558	12119.391502154867	6
0	7560	12130.991164558633	7
0	7563	12132.685988677528	6
0	7565	12133.418606193427	5
0	7567	12134.886778427584	4
0	7569	12136.681576358099	5
0	7572	12141.245959656269	4
0	7574	12145.255184096015	5
0	7577	12146.148636590459	4
0	7579	12146.182093200933	5
0	7582	12147.616958425831	4
0	7584	12155.349049539075	3
0	7586	12155.40268249475	4
0	7589	12155.987307795732	5
0	7592	12156.729580157721	4
0	7594	12159.031416803616	5
0	7597	12170.499455629101	6
0	7600	12171.798267358202	7
0	7603	12172.301050683954	8
0	7605	12181.406366029055	7
0	7608	12184.170937672097	8
0	7610	12185.151662979172	7
0	7613	12190.307371124944	8
0	7615	12190.760018932501	9
0	7617	12192.122948509559	10
0	7619	12194.200955671861	9
0	7622	12196.50263599979	8
0	7625	12197.085291237561	9
0	7627	12200.197985736887	8
0	7630	12200.603419236743	9
0	7632	12207.865005578091	8
0	7635	12212.759534285214	7
0	7638	12226.932326530864	6
0	7640	12235.39389317544	5
0	7642	12237.517161359119	6
0	7645	12247.510603288669	7
0	7648	12248.005351400018	8
0	7650	12248.859076430736	7
0	7653	12249.793389610809	6
0	7655	12261.572199866797	5
0	7657	12263.015606611329	6
0	7660	12263.099665794934	5
0	7662	12265.665969465704	4
0	7664	12266.259371578789	3
0	7666	12273.260094349972	4
0	7669	12279.752956861412	5
0	7672	12279.936859977887	6
0	7675	12280.224006694738	7
0	7678	12281.358622346452	8
0	7680	12282.710903598417	9
0	7682	12283.599804786017	8
0	7685	12286.082322867164	7
0	7688	12298.181684156769	8
0	7690	12309.814642242974	7
0	7693	12310.470397344932	8
0	7695	12316.038447762741	9
0	7697	12317.983025085056	8
0	7700	12318.213160209304	7
0	7703	12322.76488890317	8
0	7705	12326.284183556608	7
0	7708	12327.825296301738	8
0	7710	12329.970024064997	9
0	7712	12332.261628568958	8
0	7715	12334.762390137401	7
0	7718	12337.606657258291	6
0	7720	12339.22942521327	5
0	7722	12350.101889110596	4
0	7724	12355.707748827805	5
0	7727	12358.37474064701	4
0	7729	12365.585619205126	5
0	7732	12369.65054058406	4
0	7734	12369.758911035145	5
0	7737	12376.722005985741	6
0	7740	12378.285088791361	5
0	7742	12386.536060625291	4
0	7744	12390.253308542861	3
0	7746	12400.671977749657	2
0	7748	12402.646976465717	3
0	7751	12413.376319058897	4
0	7754	12413.668028480174	5
0	7757	12418.200212327789	4
0	7759	12419.383270926115	5
0	7762	12426.03104950902	6
0	7765	12432.690626388667	7
0	7768	12433.540211344651	8
0	7770	12434.101070491587	9
0	7772	12434.629435529137	10
0	7774	12437.786066883065	9
0	7777	12440.278211731418	8
0	7780	12442.741004674875	7
0	7783	12446.822850804584	6
0	7785	12450.192736832291	5
0	7787	12470.300826897049	6
0	7790	12471.938354696685	5
0	7792	12477.364155352679	4
0	7794	12478.358258941544	3
0	7796	12478.752871792665	4
0	7799	12480.52598585576	3
0	7801	12485.878522238286	4
0	7804	12490.924295883711	5
0	7807	12499.851540531669	6
0	7810	12501.063094397575	5
0	7812	12501.588503368151	4
0	7814	12512.048861274719	5
0	7817	12512.63841193247	6
0	7820	12512.805810008564	5
0	7822	12515.178274710022	4
0	7824	12521.666590401784	3
0	7826	12526.373625969528	2
0	7828	12528.488716416327	3
0	7831	12529.347099195331	2
0	7833	12533.533713582776	1
0	7835	12535.716307416079	0
0	7837	12539.375497118201	1
0	7840	12540.733535953787	2
0	7843	12555.743394720486	3
0	7846	12565.715316540308	2
0	7848	12565.835508567085	1
0	7850	12567.522341301128	2
0	7853	12577.29457415537	3
0	7856	12590.811156612106	4
0	7859	12592.189732894979	3
0	7861	12597.820201265427	4
0	7864	12602.248799116427	3
0	7866	12602.897092316433	2
0	7868	12606.570688709794	1
0	7870	12607.015559971015	2
0	7873	12607.204556742219	3
0	7876	12611.030774118189	4
0	7879	12611.112550234165	3
0	7881	12611.286172590306	4
0	7884	12611.344447906371	5
0	7887	12614.259582249536	4
0	7889	12619.822395127177	5
0	7892	12620.951608758023	6
0	7895	12627.942849118662	7
0	7898	12629.285057748905	6
0	7900	12630.375549137115	7
0	7903	12634.900384134304	6
0	7905	12637.490237763264	5
0	7907	12638.237809315823	6
0	7910	12642.01939535248	7
0	7913	12645.774082263371	6
0	7915	12647.968473810225	5
0	7917	12648.969090976707	6
0	7920	12650.952615248227	5
0	7922	12651.237621739384	6
0	7925	12654.245974562789	7
0	7928	12654.724091775155	8
0	7930	12659.296118755043	7
0	7933	12659.478529685795	6
0	7935	12669.045020795509	5
0	7937	12670.912625605851	6
0	7940	12681.993892594638	5
0	7942	12689.483400044633	6
0	7945	12692.459135353162	5
0	7947	12695.60271247582	6
0	7950	12696.603296954892	7
0	7953	12696.709257936171	6
0	7955	12696.984566072592	7
0	7958	12697.18270583939	6
0	7960	12698.616853497783	5
0	7962	12703.930534708579	6
0	7965	12706.188672840941	5
0	7967	12710.209777463299	4
0	7969	12714.461412455875	5
0	7972	12722.720559936215	6
0	7975	12728.347329482086	5
0	7977	12732.657066168717	4
0	7979	12734.197216703391	5
0	7982	12735.890693929249	4
0	7984	12736.269935877435	5
0	7987	12736.726335777064	4
0	7989	12741.306847117261	3
0	7991	12754.459006950296	2
0	7993	12758.592069944736	3
0	7996	12760.187868241489	2
0	7998	12762.744938748339	3
0	8001	12764.073956461184	4
0	8004	12769.211160508374	5
0	8007	12769.510310447384	4
0	8009	12770.306733411327	3
0	8011	12770.996917966033	4
0	8014	12771.980008122763	3
0	8016	12778.648241851753	4
0	8019	12780.197264956306	5
0	8022	12783.81380106963	6
0	8025	12786.381200251264	5
0	8027	12788.51088511714	6
0	8030	12790.171974277658	5
0	8032	12802.62781853713	4
0	8034	12817.867577849026	5
0	8037	12830.431750564796	6
0	8040	12844.446728534123	7
0	8043	12849.452519594282	8
0	8045	12851.788127408501	9
0	8047	12853.519970004189	8
0	8050	12857.015152102412	7
0	8053	12861.462541859062	8
0	8055	12865.194239503152	9
0	8057	12868.79422035643	8
0	8060	12870.41080695148	7
0	8063	12873.214485627588	6
0	8065	12873.763919443621	7
0	8068	12876.869083099695	6
0	8070	12878.176246239691	7
0	8073	12878.866250517671	8
0	8075	12880.304914625961	7
0	8078	12885.928368157718	6
0	8080	12897.447461997821	7
[...]
1	7213	11445.0318605026	0
1	7216	11450.254215292565	0
1	7218	11458.521005653629	0
1	7221	11466.008763018652	0
1	7224	11467.465176392908	0
1	7226	11468.584651134344	0
1	7229	11474.584179404095	0
1	7232	11481.334739693906	0
1	7234	11483.63864544148	0
1	7237	11485.167080851803	0
1	7239	11494.505170615278	0
1	7242	11511.265147538285	0
1	7244	11514.13014127969	0
1	7246	11524.084943180904	0
1	7249	11527.372415366293	0
1	7251	11543.578481752161	0
1	7253	11548.960855725252	0
1	7255	11551.682856313986	0
1	7257	11564.135639943079	0
1	7260	11570.361730885058	0
1	7263	11576.08063908856	0
1	7266	11582.636269999887	0
1	7269	11593.586584650517	0
1	7272	11593.858866169966	0
1	7275	11594.395633194155	0
1	7277	11594.794056034054	0
1	7280	11598.026723574121	0
1	7283	11599.597043788896	1
1	7285	11607.794950272056	0
1	7288	11614.684819925239	0
1	7290	11626.249515597032	0
1	7292	11626.819853922411	0
1	7294	11627.120541080335	0
1	7296	11632.533047963851	0
1	7299	11638.588500115973	0
1	7302	11640.727663097444	0
1	7304	11642.870022401142	0
1	7306	11646.979598148416	0
1	7309	11655.703609704983	0
1	7311	11660.000883141193	0
1	7313	11664.02362439717	0
1	7315	11683.478319027556	0
1	7317	11683.502723735503	0
1	7320	11685.293010041398	0
1	7323	11693.900695221644	0
1	7326	11694.41206720555	0
1	7329	11695.77148940937	0
1	7332	11698.144652409375	0
1	7334	11700.101328993706	0
1	7337	11701.380891043401	0
1	7340	11708.719118048294	0
1	7343	11708.763423016313	1
1	7345	11710.162537533792	2
1	7347	11710.854999780414	1
1	7350	11721.335819073335	0
1	7353	11725.855614968596	1
1	7355	11726.346334916089	0
1	7358	11731.874642519007	0
1	7360	11732.391760960219	0
1	7362	11735.341159125845	0
1	7364	11737.182107336754	0
1	7366	11738.684419413811	0
1	7369	11743.026074987596	0
1	7372	11750.909005309567	0
1	7375	11752.956191329641	0
1	7377	11769.829441716433	0
1	7379	11773.110947202694	0
1	7382	11773.166451662527	0
1	7384	11775.371617424743	0
1	7387	11776.525079707001	0
1	7389	11777.463265859545	0
1	7391	11778.023912757778	0
1	7394	11782.839189606548	0
1	7396	11796.819073430338	0
1	7398	11802.376597782303	0
1	7401	11804.719258198953	0
1	7404	11809.598271348898	0
1	7407	11810.470547000377	0
1	7409	11812.113935567634	0
1	7411	11822.812660181464	0
1	7414	11833.396460797751	0
1	7417	11835.595521252276	0
1	7420	11835.874078398989	0
1	7422	11841.008568365483	0
1	7424	11849.118214088856	0
1	7427	11850.191538028618	0
1	7429	11858.388384458715	0
1	7432	11860.813673649917	0
1	7434	11863.246942559532	0
1	7436	11863.479473428053	0
1	7439	11864.587309872929	0
1	7442	11874.58936961844	0
1	7444	11883.290025274823	0
1	7447	11884.247799634251	0
1	7449	11889.747043895425	0
1	7451	11891.125956306768	0
1	7454	11896.664539170896	0
1	7457	11898.773151700873	0
1	7459	11906.883029283945	0
1	7461	11950.810684434842	0
1	7463	11967.856212528251	0
1	7466	11973.14812984992	0
1	7468	11974.995741793262	0
1	7471	11985.230909443068	0
1	7474	11987.529907521827	0
1	7476	11996.3493025455	0
1	7478	12006.230944680074	0
1	7481	12012.403949890021	0
1	7484	12024.571037276111	0
1	7487	12026.130321683113	0
1	7490	12027.217209311334	0
1	7493	12030.354619665373	1
1	7495	12035.457974271324	2
1	7497	12039.565085769149	3
1	7499	12040.575744808999	2
1	7502	12046.459408334834	1
1	7505	12051.836238403078	2
1	7507	12055.268838505688	3
1	7509	12056.686795011105	2
1	7512	12059.068245672868	3
1	7514	12061.335184893746	2
1	7517	12062.086708678329	3
1	7519	12066.740156053713	4
1	7521	12068.185626134414	5
1	7523	12071.467651033998	6
1	7525	12084.483720923897	5
1	7528	12092.412599316339	4
1	7531	12092.570571315944	3
1	7534	12095.247151693285	2
1	7537	12097.34577984341	1
1	7540	12098.05553132852	2
1	7542	12098.685448036837	1
1	7545	12104.803679570364	2
1	7547	12106.988844985865	3
1	7549	12107.993979195352	2
1	7552	12108.883300758558	1
1	7555	12109.943016249588	0
1	7558	12119.391502154867	0
1	7560	12130.991164558633	0
1	7563	12132.685988677528	0
1	7565	12133.418606193427	0
1	7567	12134.886778427584	0
1	7569	12136.681576358099	0
1	7572	12141.245959656269	0
1	7574	12145.255184096015	0
1	7577	12146.148636590459	0
1	7579	12146.182093200933	0
1	7582	12147.616958425831	0
1	7584	12155.349049539075	0
1	7586	12155.40268249475	0
1	7589	12155.987307795732	0
1	7592	12156.729580157721	0
1	7594	12159.031416803616	0
1	7597	12170.499455629101	0
1	7600	12171.798267358202	0
1	7603	12172.301050683954	1
1	7605	12181.406366029055	0
1	7608	12184.170937672097	1
1	7610	12185.151662979172	0
1	7613	12190.307371124944	1
1	7615	12190.760018932501	2
1	7617	12192.122948509559	3
1	7619	12194.200955671861	2
1	7622	12196.50263599979	1
1	7625	12197.085291237561	2
1	7627	12200.197985736887	1
1	7630	12200.603419236743	2
1	7632	12207.865005578091	1
1	7635	12212.759534285214	0
1	7638	12226.932326530864	0
1	7640	12235.39389317544	0
1	7642	12237.517161359119	0
1	7645	12247.510603288669	0
1	7648	12248.005351400018	1
1	7650	12248.859076430736	0
1	7653	12249.793389610809	0
1	7655	12261.572199866797	0
1	7657	12263.015606611329	0
1	7660	12263.099665794934	0
1	7662	12265.665969465704	0
1	7664	12266.259371578789	0
1	7666	12273.260094349972	0
1	7669	12279.752956861412	0
1	7672	12279.936859977887	0
1	7675	12280.224006694738	0
1	7678	12281.358622346452	1
1	7680	12282.710903598417	2
1	7682	12283.599804786017	1
1	7685	12286.082322867164	0
1	7688	12298.181684156769	1
1	7690	12309.814642242974	0
1	7693	12310.470397344932	1
1	7695	12316.038447762741	2
1	7697	12317.983025085056	1
1	7700	12318.213160209304	0
1	7703	12322.76488890317	1
1	7705	12326.284183556608	0
1	7708	12327.825296301738	1
1	7710	12329.970024064997	2
1	7712	12332.261628568958	1
1	7715	12334.762390137401	0
1	7718	12337.606657258291	0
1	7720	12339.22942521327	0
1	7722	12350.101889110596	0
1	7724	12355.707748827805	0
1	7727	12358.37474064701	0
1	7729	12365.585619205126	0
1	7732	12369.65054058406	0
1	7734	12369.758911035145	0
1	7737	12376.722005985741	0
1	7740	12378.285088791361	0
1	7742	12386.536060625291	0
1	7744	12390.253308542861	0
1	7746	12400.671977749657	0
1	7748	12402.646976465717	0
1	7751	12413.376319058897	0
1	7754	12413.668028480174	0
1	7757	12418.200212327789	0
1	7759	12419.383270926115	0
1	7762	12426.03104950902	0
1	7765	12432.690626388667	0
1	7768	12433.540211344651	1
1	7770	12434.101070491587	2
1	7772	12434.629435529137	3
1	7774	12437.786066883065	2
1	7777	12440.278211731418	1
1	7780	12442.741004674875	0
1	7783	12446.822850804584	0
1	7785	12450.192736832291	0
1	7787	12470.300826897049	0
1	7790	12471.938354696685	0
1	7792	12477.364155352679	0
1	7794	12478.358258941544	0
1	7796	12478.752871792665	0
1	7799	12480.52598585576	0
1	7801	12485.878522238286	0
1	7804	12490.924295883711	0
1	7807	12499.851540531669	0
1	7810	12501.063094397575	0
1	7812	12501.588503368151	0
1	7814	12512.048861274719	0
1	7817	12512.63841193247	0
1	7820	12512.805810008564	0
1	7822	12515.178274710022	0
1	7824	12521.666590401784	0
1	7826	12526.373625969528	0
1	7828	12528.488716416327	0
1	7831	12529.347099195331	0
1	7833	12533.533713582776	0
1	7835	12535.716307416079	0
1	7837	12539.375497118201	0
1	7840	12540.733535953787	0
1	7843	12555.743394720486	0
1	7846	12565.715316540308	0
1	7848	12565.835508567085	0
1	7850	12567.522341301128	0
1	7853	12577.29457415537	0
1	7856	12590.811156612106	0
1	7859	12592.189732894979	0
1	7861	12597.820201265427	0
1	7864	12602.248799116427	0
1	7866	12602.897092316433	0
1	7868	12606.570688709794	0
1	7870	12607.015559971015	0
1	7873	12607.204556742219	0
1	7876	12611.030774118189	0
1	7879	12611.112550234165	0
1	7881	12611.286172590306	0
1	7884	12611.344447906371	0
1	7887	12614.259582249536	0
1	7889	12619.822395127177	0
1	7892	12620.951608758023	0
1	7895	12627.942849118662	0
1	7898	12629.285057748905	0
1	7900	12630.375549137115	0
1	7903	12634.900384134304	0
1	7905	12637.490237763264	0
1	7907	12638.237809315823	0
1	7910	12642.01939535248	0
1	7913	12645.774082263371	0
1	7915	12647.968473810225	0
1	7917	12648.969090976707	0
1	7920	12650.952615248227	0
1	7922	12651.237621739384	0
1	7925	12654.245974562789	0
1	7928	12654.724091775155	1
1	7930	12659.296118755043	0
1	7933	12659.478529685795	0
1	7935	12669.045020795509	0
1	7937	12670.912625605851	0
1	7940	12681.993892594638	0
1	7942	12689.483400044633	0
1	7945	12692.459135353162	0
1	7947	12695.60271247582	0
1	7950	12696.603296954892	0
1	7953	12696.709257936171	0
1	7955	12696.984566072592	0
1	7958	12697.18270583939	0
1	7960	12698.616853497783	0
1	7962	12703.930534708579	0
1	7965	12706.188672840941	0
1	7967	12710.209777463299	0
1	7969	12714.461412455875	0
1	7972	12722.720559936215	0
1	7975	12728.347329482086	0
1	7977	12732.657066168717	0
1	7979	12734.197216703391	0
1	7982	12735.890693929249	0
1	7984	12736.269935877435	0
1	7987	12736.726335777064	0
1	7989	12741.306847117261	0
1	7991	12754.459006950296	0
1	7993	12758.592069944736	0
1	7996	12760.187868241489	0
1	7998	12762.744938748339	0
1	8001	12764.073956461184	0
1	8004	12769.211160508374	0
1	8007	12769.510310447384	0
1	8009	12770.306733411327	0
1	8011	12770.996917966033	0
1	8014	12771.980008122763	0
1	8016	12778.648241851753	0
1	8019	12780.197264956306	0
1	8022	12783.81380106963	0
1	8025	12786.381200251264	0
1	8027	12788.51088511714	0
1	8030	12790.171974277658	0
1	8032	12802.62781853713	0
1	8034	12817.867577849026	0
1	8037	12830.431750564796	0
1	8040	12844.446728534123	0
1	8043	12849.452519594282	1
1	8045	12851.788127408501	2
1	8047	12853.519970004189	1
1	8050	12857.015152102412	0
1	8053	12861.462541859062	1
1	8055	12865.194239503152	2
1	8057	12868.79422035643	1
1	8060	12870.41080695148	0
1	8063	12873.214485627588	0
1	8065	12873.763919443621	0
1	8068	12876.869083099695	0
1	8070	12878.176246239691	0
1	8073	12878.866250517671	1
1	8075	12880.304914625961	0
1	8078	12885.928368157718	0
1	8080	12897.447461997821	0
1	8083	12899.412182556223	0
1	8085	12901.375163194291	0
1	8088	12916.283952693617	0
1	8090	12923.408682280502	0
1	8093	12926.351552650863	0
1	8095	12929.400928100699	0
1	8098	12933.959642652171	1
1	8100	12936.404459912271	2
1	8102	12939.179883337246	1
1	8105	12946.010413045437	2
1	8107	12952.610343249303	3
1	8109	12952.624781115294	4
1	8111	12955.162408222309	3
1	8114	12958.77492863129	2
1	8117	12959.676794662409	3
1	8119	12960.202596840763	4
1	8121	12961.101427987255	3
1	8124	12969.599270370767	4
1	8126	12971.296953465375	3
1	8129	12972.133954795361	4
1	8131	12974.222537419685	3
1	8134	12975.30889979551	2
1	8137	12975.747664631371	1
1	8140	12975.817535482806	0
1	8143	12977.277279762469	0
1	8145	12980.103956698664	0
1	8148	12980.92849926377	0
1	8150	12982.160048069894	0
1	8152	12988.730563399782	0
1	8155	12994.802840848893	0
1	8157	12995.07789274549	0
1	8159	12996.851218478744	0
1	8162	12997.18073568119	0
1	8165	13009.012023086474	0
1	8167	13011.537371686567	0
1	8169	13016.109449472521	0
1	8172	13016.46619461197	0
1	8174	13021.178650783026	0
1	8177	13021.86792611057	0
1	8180	13025.696147093201	0
1	8183	13028.652690466645	0
1	8185	13037.820178325412	0
1	8188	13039.370712521846	0
1	8190	13046.991084388509	0
1	8192	13047.019708000913	0
1	8194	13047.964674298558	0
1	8197	13049.268164577445	0
1	8199	13050.434046813508	0
1	8202	13064.766704124895	0
1	8205	13066.119808758186	0
1	8207	13071.968713216636	0
1	8209	13073.224155903767	0
1	8211	13073.407247243802	0
1	8214	13074.291699061785	0
1	8216	13075.406504037238	0
1	8219	13078.248731492426	0
1	8221	13078.850265011073	0
1	8224	13079.092832265425	0
1	8227	13081.947693408968	0
1	8230	13085.571454526097	0
1	8233	13087.783328328035	0
1	8235	13088.976509496724	0
1	8237	13091.91247822668	0
1	8240	13098.558628299585	0
1	8243	13101.201854765239	1
1	8245	13103.774511894555	0
1	8248	13108.177471856788	0
1	8250	13108.668233772687	0
1	8252	13109.237667152832	0
1	8255	13114.207164981934	0
1	8257	13118.608675863705	0
1	8259	13123.512190572388	0
1	8261	13124.640019251942	0
1	8264	13143.225964544347	0
1	8267	13147.072040899363	0
1	8269	13157.737804443662	0
1	8272	13159.862207171566	0
1	8274	13161.161117677978	0
1	8276	13161.999186894782	0
1	8278	13163.534385254963	0
1	8281	13167.5487053345	0
1	8284	13171.275185842151	0
1	8287	13171.507894793572	0
1	8290	13172.366468864221	0
1	8293	13172.507259339577	1
1	8295	13172.730522823131	0
1	8298	13181.884332169847	0
1	8300	13183.483813468767	0
1	8303	13184.51745708447	0
1	8305	13184.96822305137	0
1	8308	13185.467119713323	0
1	8310	13185.617351635308	0
1	8313	13190.4052663332	0
1	8315	13193.696814489984	0
1	8318	13197.389587861192	1
1	8320	13200.9693198129	0
1	8323	13201.839350119645	1
1	8325	13204.123792489682	0
1	8328	13205.519651599722	0
1	8330	13206.13296095087	0
1	8332	13207.015834027051	0
1	8335	13208.506195907331	0
1	8337	13215.485746548355	0
1	8340	13217.529372671228	0
1	8342	13218.551097810298	0
1	8344	13219.967088006251	0
1	8347	13226.447241065795	0
1	8349	13231.81301207774	0
1	8352	13233.161790291106	0
1	8354	13244.368412245315	0
1	8357	13249.047270307307	0
1	8360	13260.247447457779	0
1	8362	13263.848116903541	0
1	8364	13266.153147429363	0
1	8367	13269.882917850031	0
1	8369	13277.759031937648	0
1	8372	13278.241777208571	0
1	8375	13283.257911665626	0
1	8377	13289.54497819973	0
1	8379	13294.403502931408	0
1	8381	13295.686072978117	0
1	8383	13296.020264555905	0
1	8386	13303.897887950242	0
1	8389	13305.079412831722	0
1	8392	13307.954791992452	0
1	8395	13309.738347663609	0
1	8397	13314.320150114408	0
1	8399	13322.211183767381	0
1	8401	13323.751057261956	0
1	8403	13327.014343764072	0
1	8405	13334.683043546985	0
1	8408	13337.686442895568	0
1	8411	13348.611827512876	0
1	8414	13354.758620103734	0
1	8416	13370.364434381551	0
1	8419	13375.427139502604	0
1	8421	13378.595327585797	0
1	8424	13383.969363440238	0
1	8427	13388.539273195088	0
1	8429	13396.98189208311	0
1	8431	13402.453917636069	0
1	8434	13405.242002109347	0
1	8436	13405.914434615843	0
1	8439	13406.222485491462	0
1	8441	13433.557749618396	0
1	8444	13433.810408321969	0
1	8446	13451.827121128502	0
1	8449	13454.116929249854	0
1	8451	13455.391313729156	0
1	8453	13459.393174925968	0
1	8456	13469.586408283692	0
1	8459	13472.596005070597	0
1	8462	13473.620223988632	0
1	8464	13480.189631459343	0
1	8467	13490.529324243835	0
1	8469	13492.349667419582	0
1	8471	13520.965050622736	0
1	8474	13522.1570981661	0
1	8476	13528.112694792543	0
1	8479	13530.071850381424	0
1	8482	13535.968409104861	0
1	8485	13539.615103918424	0
1	8487	13543.30413307042	0
1	8490	13548.119073340361	0
1	8492	13555.635072870313	0
1	8495	13558.252242911215	0
1	8497	13559.65341470457	0
1	8500	13572.183906074053	0
1	8502	13581.634505463904	0
1	8505	13585.845854958759	0
1	8507	13586.27501336633	0
1	8509	13590.285756066518	0
1	8512	13591.436361524713	0
1	8515	13592.501207585328	0
1	8518	13593.185934735107	1
1	8520	13600.200732624371	0
1	8523	13601.359586034542	0
1	8525	13602.50364161929	0
1	8527	13605.601253867328	0
1	8530	13610.464922095407	0
1	8532	13611.239729142974	0
1	8534	13617.388659058102	0
1	8537	13618.982368209129	0
1	8540	13620.44646621268	0
1	8543	13622.580640072782	1
1	8545	13623.319937261776	2
1	8547	13626.52226199215	3
1	8549	13630.283405943118	4
1	8551	13630.95580971836	5
1	8553	13634.485932520289	4
1	8556	13637.340487137483	3
1	8559	13639.688465722742	2
1	8562	13646.257665034775	3
1	8564	13647.297692225957	2
1	8567	13649.749479149639	1
1	8570	13657.1900443199	2
1	8572	13659.206477919824	1
1	8575	13660.658168623522	0
1	8578	13660.74688574694	0
1	8580	13662.099590783835	0
1	8583	13664.507783372931	0
1	8585	13666.3534382359	0
1	8587	13672.601976861544	0
1	8589	13672.842019285746	0
1	8592	13672.956325924308	0
1	8594	13674.159868098521	0
1	8597	13680.292712467373	0
1	8599	13680.698474821753	0
1	8602	13682.493907127842	0
1	8605	13686.017151959187	0
1	8607	13687.918958636317	0
1	8610	13692.256242942738	0
1	8612	13695.521382409237	0
1	8615	13697.157302910456	0
1	8617	13719.646763995701	0
1	8620	13719.721847396697	0
1	8622	13721.144131216354	0
1	8624	13725.27074696011	0
1	8626	13725.730884484175	0
1	8629	13729.343492453101	0
1	8632	13730.107227696371	0
1	8635	13751.914454009327	0
1	8638	13753.938358731987	0
1	8640	13754.494413326496	0
1	8643	13760.711048223823	0
1	8645	13762.221764728182	0
1	8648	13763.785999656762	0
1	8650	13772.417133431168	0
1	8652	13776.440383160564	0
1	8654	13776.834619669168	0
1	8657	13776.9442820026	0
1	8659	13780.60015964061	0
1	8662	13781.874009456712	0
1	8665	13782.112662405253	0
1	8667	13783.372529546	0
1	8670	13791.734122731657	0
1	8672	13795.963932498186	0
1	8674	13799.056783343255	0
1	8676	13812.57822913704	0
1	8679	13818.399566995039	0
1	8682	13824.076991962407	0
1	8684	13824.110415544132	0
1	8687	13825.571913760261	0
1	8690	13826.591062060442	0
1	8693	13827.511512867382	0
1	8695	13838.31745902136	0
1	8697	13843.860803584654	0
1	8699	13845.760527763645	0
1	8701	13846.060988254577	0
1	8704	13852.327862243686	0
1	8707	13853.444277215374	0
1	8709	13856.991670547971	0
1	8712	13859.02503485057	0
1	8714	13861.72255733173	0
1	8717	13866.819937922072	0
1	8719	13879.406707628959	0
1	8722	13880.602440125365	0
1	8725	13885.266607276657	0
1	8728	13890.354541209575	0
1	8730	13890.999622798979	0
1	8732	13899.950224145233	0
1	8735	13901.274324360576	0
1	8737	13904.386334406824	0
1	8739	13906.843045792273	0
1	8741	13907.885908938022	0
1	8744	13910.000617378088	0
1	8747	13911.778488766589	0
1	8749	13915.502792626552	0
1	8752	13915.912218378536	0
1	8755	13921.643618564464	0
1	8757	13937.082117297212	0
1	8759	13937.290325563556	0
1	8762	13948.498099535048	0
1	8764	13952.911682175173	0
1	8766	13968.380788569533	0
1	8769	13972.703591282206	0
1	8772	13973.242141970439	0
1	8775	13975.511594146137	0
1	8777	13980.105862872062	0
1	8780	13982.52146228024	0
1	8782	13991.12754100661	0
1	8784	13995.041390148999	0
1	8787	13996.223456536367	0
1	8790	14000.989630398433	0
1	8792	14002.083282673006	0
1	8795	14007.186928107355	0
1	8798	14010.333806384911	0
1	8800	14017.668785417298	0
1	8803	14023.74297666205	1
1	8805	14024.328321287247	2
1	8807	14031.509167376814	3
1	8809	14036.517965796182	4
1	8811	14041.021201141315	3
1	8814	14041.322652058954	2
1	8817	14046.244544604633	1
1	8820	14047.485628816612	0
1	8823	14050.865698454391	1
1	8825	14051.216645376142	2
1	8827	14066.356680764864	3
1	8829	14072.028385442018	4
1	8831	14076.299333914866	5
1	8833	14078.585620910837	4
1	8836	14080.367718546092	3
1	8839	14081.132154022835	4
1	8841	14095.549400712234	3
1	8844	14109.212749958411	2
1	8847	14110.877802239041	3
1	8849	14116.831164427404	2
1	8852	14117.519721597952	1
1	8855	14118.22061771641	2
1	8857	14124.742345088339	1
1	8860	14136.473150277247	0
1	8863	14137.266387096913	0
1	8865	14141.434146573542	0
1	8868	14142.774027146414	1
1	8870	14142.777790422947	0
1	8873	14145.476370159284	1
1	8875	14147.883247599962	2
1	8877	14149.772244990697	3
1	8879	14149.797909840217	4
1	8881	14159.853635953115	3
1	8884	14168.388631107899	2
1	8887	14172.235538232552	1
1	8890	14177.280057581793	0
1	8893	14177.420528834374	0
1	8895	14179.437055580465	0
1	8898	14179.560371366042	1
1	8900	14181.429276267251	0
1	8903	14189.568251837475	0
1	8905	14196.758007265319	0
1	8907	14201.078186341453	0
1	8909	14208.205085923027	0
1	8911	14215.576078438113	0
1	8913	14225.02264888056	0
1	8916	14226.478741428899	0
1	8918	14228.724388119347	0
1	8921	14230.269087562078	0
1	8924	14230.939164190143	0
1	8926	14235.426637270372	0
1	8929	14254.922170141865	0
1	8932	14259.367422038044	0
1	8935	14263.824341682651	0
1	8937	14265.339310372299	0
1	8939	14269.25562349931	0
1	8942	14270.530518453588	0
1	8945	14272.027638753237	0
1	8947	14284.294739808454	0
1	8949	14290.536586874134	0
1	8951	14301.585761859035	0
1	8953	14307.934911262754	0
1	8955	14317.741426545047	0
1	8958	14320.472548231665	0
1	8960	14322.498989374028	0
1	8963	14337.06778795158	0
1	8966	14339.408920777097	0
1	8969	14341.007237039755	0
1	8971	14343.604420942789	0
1	8973	14344.252962680878	0
1	8976	14349.752348076788	0
1	8979	14356.827377417887	0
1	8982	14368.740574211662	0
1	8984	14372.45474793234	0
1	8987	14373.527057699527	0
1	8990	14374.633362200912	0
1	8992	14378.126615770634	0
1	8994	14383.930336102058	0
1	8997	14387.179029611164	0
1	8999	14390.437897561095	0
1	9001	14395.686731407401	0
1	9003	14396.253400410589	0

