version 2
run POLICY_1-21-20191213-12:40:10-1218
attr configname POLICY_1
attr datetime 20191213-12:40:10
attr experiment POLICY_1
attr inifile omnetpp.ini
attr iterationvars ""
attr iterationvarsf ""
attr measurement ""
attr network Carrefour
attr processid 1218
attr repetition 21
attr replication #21
attr resultdir results
attr runnumber 21
attr seedset 21
param **.policy 1
param **.delta 0s
param **.tillsNumber 7
param **.capacity 0.3
param **.meanInterArrivalTime 8s
param **.meanItemsInACart 12
param **.interArrivalDistribution 0
param **.itemsInCartDistribution 0

vector 0 Carrefour.decider stats_numCustomers:vector ETV
attr "" ""
attr source numCustomers
vector 1 Carrefour.decider stats_numCustomersQueue:vector ETV
attr "" ""
attr source numCustomersQueue
0	768	1202.122870216932	8
0	770	1205.674011553191	9
0	772	1208.639275048401	8
0	775	1214.097244343513	9
0	777	1215.08244513552	10
0	779	1215.615756793725	9
0	782	1221.325836233026	8
0	785	1229.503581845437	7
0	788	1230.180635440606	6
0	790	1234.799482958909	7
0	793	1250.707719243706	8
0	795	1258.474149863636	7
0	798	1265.886736721165	8
0	800	1270.855845051387	7
0	803	1270.899847126324	6
0	805	1273.697146218361	7
0	808	1278.471856018989	8
0	810	1281.686406423284	9
0	812	1282.488595262186	10
0	814	1283.013939794858	11
0	816	1284.431405017276	10
0	819	1286.720620764914	11
0	821	1289.700527569811	12
0	823	1295.792555820346	11
0	826	1296.039265213053	10
0	829	1297.017884183002	9
0	832	1298.215080357946	8
0	835	1298.541787029375	9
0	837	1300.612340098594	8
0	840	1301.688300739514	9
0	842	1310.459355414077	10
0	844	1320.922361569173	11
0	846	1324.472521314453	10
0	849	1325.304837953133	9
0	852	1328.080509329753	10
0	854	1328.364858669094	9
0	857	1330.998510936943	8
0	860	1336.199624191956	9
0	862	1338.252365529102	8
0	865	1338.769223884396	9
0	867	1339.323506770571	8
0	870	1356.22723931639	9
0	872	1362.817723424662	10
0	874	1367.930252448427	11
0	876	1371.792394400372	12
0	878	1371.976244078319	11
0	881	1372.180094033677	10
0	884	1372.811373491972	11
0	886	1380.134371016932	10
0	889	1390.840015824523	9
0	892	1401.333940627775	10
0	894	1403.037300360809	9
0	897	1405.421833439369	8
0	900	1405.604415356997	7
0	903	1411.326951290296	8
0	905	1417.929962368167	7
0	908	1421.538637087017	6
0	910	1425.755521402026	5
0	912	1426.446190252658	6
0	915	1437.889332097441	7
0	918	1448.12262554676	8
0	920	1454.713725579926	9
0	922	1456.86706758511	10
0	924	1468.65818749622	11
0	926	1468.863734345521	10
0	929	1471.02463612948	11
0	931	1474.793026623224	10
0	934	1476.471153998879	11
0	936	1476.801344035411	12
0	938	1482.718774688098	13
0	940	1484.702011927317	12
0	943	1491.633829994377	11
0	946	1492.640077082099	12
0	948	1492.870613020576	11
0	951	1497.102590667373	12
0	953	1498.042872636232	13
0	955	1498.248854818484	14
0	957	1502.877929924707	15
0	959	1503.791269417819	16
0	961	1505.593628390702	17
0	963	1505.849097843615	18
0	965	1506.638567020253	17
0	968	1515.685027713425	16
0	971	1518.914140683181	15
0	974	1522.725734607618	14
0	977	1523.937848761193	15
0	979	1532.031685121422	16
0	981	1534.503062134065	15
0	984	1537.192184759837	16
0	986	1540.211358432847	17
0	988	1546.838981541148	18
0	990	1547.720380661519	17
0	993	1549.011492264155	16
0	996	1549.889524165406	15
0	999	1550.19312603164	14
0	1002	1550.638156613568	13
0	1005	1552.522478991362	14
0	1007	1555.001856134602	13
0	1010	1559.818526066233	12
0	1013	1562.035575009759	13
0	1015	1563.587110757045	12
0	1018	1571.150443951587	11
0	1021	1571.50269733939	10
0	1024	1572.979822460431	9
0	1027	1577.571739678772	8
0	1030	1581.085699743065	9
0	1032	1582.286066239569	10
0	1034	1584.579976830032	11
0	1036	1586.760910231864	10
0	1039	1587.314791907616	9
0	1042	1587.916826929408	8
0	1045	1588.271753997189	7
0	1048	1590.212478663029	6
0	1050	1591.999141689561	7
0	1053	1594.599091802532	6
0	1055	1596.225397471959	7
0	1058	1602.434864594461	8
0	1060	1602.512051269471	7
0	1063	1613.704857801454	8
0	1065	1615.520677226843	9
0	1067	1615.735778465324	8
0	1070	1616.274505330554	7
0	1073	1617.599118416557	8
0	1075	1625.969013691433	7
0	1078	1638.197579613987	6
0	1080	1639.242403092944	5
0	1082	1640.496225668582	6
0	1085	1641.137059920869	7
0	1088	1642.54037348783	6
0	1090	1648.444727208879	7
0	1093	1648.813645867501	6
0	1095	1651.181849649854	7
0	1098	1653.987101009502	6
0	1100	1660.67575863456	7
0	1103	1662.082225486627	8
0	1105	1662.51662831876	7
0	1108	1675.27503744462	6
0	1110	1679.075583957689	7
0	1113	1680.586801119117	6
0	1115	1699.936709931119	5
0	1117	1700.315184141881	6
0	1120	1705.585392287698	5
0	1122	1708.148049630837	6
0	1125	1721.355146299368	7
0	1128	1724.158800126723	8
0	1130	1732.186753755677	9
0	1132	1733.078625410226	10
0	1134	1734.639227686847	9
0	1137	1735.222622404307	8
0	1140	1738.590358788557	7
0	1143	1741.900818875444	6
0	1145	1745.942331701732	5
0	1147	1749.490783115148	6
0	1150	1754.369096572249	7
0	1153	1754.687310751316	6
0	1155	1767.392848288016	7
0	1158	1769.364559628416	8
0	1160	1771.016523433954	9
0	1162	1773.846087982888	8
0	1165	1775.061210414654	7
0	1168	1775.326346411605	8
0	1170	1777.0436418519	7
0	1173	1778.782661905021	6
0	1175	1779.363970476697	5
0	1177	1781.369248773721	4
0	1179	1787.012479667622	3
0	1181	1793.172853666232	4
0	1184	1799.535943251949	3
0	1186	1803.562833842494	2
0	1188	1810.356690598083	3
0	1191	1815.440262884573	2
0	1193	1815.847268971005	1
0	1195	1816.55748981228	2
0	1198	1819.694071581174	3
0	1201	1821.232133283649	2
0	1203	1832.872858115638	3
0	1206	1833.914529033969	4
0	1209	1834.745528624114	3
0	1211	1843.076276799443	2
0	1213	1852.028470507874	3
0	1216	1855.552623678606	4
0	1219	1857.295356438139	3
0	1221	1858.614469347085	4
0	1224	1861.048704475672	3
0	1226	1863.106186154848	2
0	1228	1877.600972021744	3
0	1231	1878.533709284509	4
0	1234	1881.074796534087	5
0	1237	1881.368249928754	4
0	1239	1882.065828532515	3
0	1241	1883.144290511101	4
0	1244	1891.490243786577	5
0	1247	1895.9467054228	6
0	1250	1895.950869518251	7
0	1253	1904.772520970239	6
0	1255	1907.778247988814	5
0	1257	1909.581507410355	6
0	1260	1910.205568114104	5
0	1262	1913.059450028773	6
0	1265	1922.665051151088	5
0	1267	1924.06097773982	4
0	1269	1928.830209780366	5
0	1272	1931.738439756914	6
0	1275	1931.794251031738	7
0	1278	1933.233542903387	8
0	1280	1933.536717356126	7
0	1283	1938.684256264603	6
0	1285	1938.952552139678	7
0	1288	1943.874053069837	6
0	1290	1945.06264459295	7
0	1293	1947.553133529327	6
0	1295	1949.384831136274	7
0	1298	1950.54844434454	6
0	1300	1953.094399844745	5
0	1302	1954.690897456275	6
0	1305	1956.700236119003	7
0	1308	1961.348666558269	6
0	1310	1966.13281361776	7
0	1313	1966.339668693432	6
0	1315	1967.154256769974	7
0	1318	1969.665505137395	8
0	1320	1972.960773785259	9
0	1322	1975.19981337804	10
0	1324	1998.104782640635	11
0	1326	1999.578964353003	12
0	1328	2002.702034814584	13
0	1330	2004.677061082119	14
0	1332	2006.506896908545	13
0	1335	2007.153125836496	12
0	1338	2009.388941493068	11
0	1341	2010.528683579065	12
0	1343	2017.06209315984	13
0	1345	2021.076657889324	12
0	1348	2026.666007262898	11
0	1351	2026.774788944012	12
0	1353	2030.912707118335	13
0	1355	2034.528503150824	14
0	1357	2035.065251247445	15
0	1359	2035.232635422695	14
0	1362	2044.485286482919	13
0	1365	2045.717872019671	12
0	1368	2048.504147587916	11
0	1371	2058.308896189569	10
0	1374	2060.478289320727	9
0	1377	2063.607636873583	10
0	1379	2065.95096725158	11
0	1381	2070.747380050613	10
0	1384	2073.477866805454	9
0	1387	2075.068742673518	8
0	1390	2078.096731713373	7
0	1393	2078.83306596802	6
0	1395	2091.07495998238	5
0	1397	2092.207046718479	6
0	1400	2094.475250514094	7
0	1403	2096.795740890756	8
0	1405	2097.125068343327	7
0	1408	2097.165211657814	6
0	1410	2097.704473185133	5
0	1412	2106.329572640424	6
0	1415	2109.763870054547	5
0	1417	2111.830846787395	6
0	1420	2120.475326641021	5
0	1422	2121.796725048791	6
0	1425	2124.660168759426	7
0	1428	2125.942335050803	8
0	1430	2127.237811713242	7
0	1433	2127.942255316477	6
0	1435	2128.624332420368	7
0	1438	2133.021434639174	6
0	1440	2135.250785647639	5
0	1442	2141.048178038748	4
0	1444	2141.407975076432	3
0	1446	2147.055779050305	2
0	1448	2163.185878166594	1
0	1450	2165.400771792315	0
0	1452	2177.365191304793	1
0	1455	2177.665867141351	2
0	1458	2180.148354110001	3
0	1461	2180.273866021052	2
0	1463	2187.672290605101	3
0	1466	2188.716722117592	2
0	1468	2208.552026029872	1
0	1470	2217.717558196321	2
0	1473	2223.30571521344	3
0	1476	2227.540850799643	4
0	1479	2227.963659537848	5
0	1482	2228.23253355605	6
0	1485	2230.845540905949	7
0	1488	2232.21018511965	6
0	1490	2232.531415766823	5
0	1492	2233.847365158733	4
0	1494	2234.231371510467	5
0	1497	2237.198132947863	4
0	1499	2237.298761948935	3
0	1501	2244.041185762406	2
0	1503	2253.342258707009	3
0	1506	2261.390917586647	4
0	1509	2263.581801994518	5
0	1512	2272.714932159557	6
0	1515	2273.967179012611	7
0	1518	2278.938091536375	6
0	1520	2280.023283342334	7
0	1523	2281.07549262601	6
0	1525	2285.401460205978	7
0	1528	2290.151976120199	8
0	1530	2307.020579007841	7
0	1533	2307.110262514896	6
0	1535	2308.758930295115	5
0	1537	2313.887059631196	4
0	1539	2324.104273708493	5
0	1542	2330.543934006087	6
0	1545	2332.761092544138	7
0	1548	2339.946670313207	8
0	1550	2342.843815828867	7
0	1553	2347.273602237619	6
0	1555	2347.834221184407	5
0	1557	2348.86791039793	6
0	1560	2349.542386936983	7
0	1563	2361.013487932608	8
0	1565	2364.705384998228	9
0	1567	2366.876050421506	10
0	1569	2369.094313731312	11
0	1571	2379.516305188717	12
0	1573	2385.19731590181	11
0	1576	2387.669942289641	10
0	1579	2392.518394926687	11
0	1581	2394.030025799583	10
0	1584	2396.186577344225	11
0	1586	2401.270142632567	12
0	1588	2408.338445090973	11
0	1591	2409.274172551254	12
0	1593	2413.788943547447	11
0	1596	2415.271530207728	10
0	1599	2424.092298919854	9
0	1602	2425.296725083547	8
0	1605	2432.560966070495	7
0	1608	2433.845288065561	6
0	1610	2436.565502374408	5
0	1612	2442.072151073609	6
0	1615	2450.102853651257	7
0	1618	2450.156480854737	6
0	1620	2451.792749011417	5
0	1622	2454.173799887403	6
0	1625	2460.312881822319	7
0	1628	2460.508217615209	6
0	1630	2473.87423743564	7
0	1633	2474.631270684538	8
0	1635	2477.280919045946	7
0	1638	2480.650504613325	6
0	1640	2487.440851234807	7
0	1643	2501.870009534232	8
0	1645	2503.176917172308	9
0	1647	2506.271399551093	10
0	1649	2510.493350813018	9
0	1652	2511.643527959247	8
0	1655	2511.948844922101	9
0	1657	2513.600301735427	10
0	1659	2523.121197818867	11
0	1661	2523.454235898256	12
0	1663	2536.970274669458	11
0	1666	2539.089901384514	12
0	1668	2540.293166498565	11
0	1671	2544.880344115055	10
0	1674	2546.240128660286	11
0	1676	2549.360294159305	10
0	1679	2549.395842262325	11
0	1681	2550.582575274677	10
0	1684	2555.684684754204	9
0	1687	2558.450656245947	10
0	1689	2560.018552439822	9
0	1692	2560.440819791047	10
0	1694	2560.574635362505	11
0	1696	2561.632127959674	10
0	1699	2563.238653229088	9
0	1702	2570.509404522482	10
0	1704	2572.866378560387	9
0	1707	2576.250449107621	10
0	1709	2579.674255456411	9
0	1712	2580.692068783782	8
0	1715	2584.482865769054	7
0	1718	2588.254616432485	6
0	1720	2588.368926174347	5
0	1722	2589.515317937905	6
0	1725	2591.569911130822	7
0	1728	2594.99977266208	8
0	1730	2598.961223476635	7
0	1733	2603.288767541038	8
0	1735	2604.097737442251	9
0	1737	2605.63057119753	10
0	1739	2622.528071707243	9
0	1742	2628.207931097374	10
0	1744	2628.725433532104	9
0	1747	2630.55654091657	8
0	1750	2637.601631241241	9
0	1752	2641.655928487318	10
0	1754	2645.567598139	11
0	1756	2651.401961467773	12
0	1758	2665.254853250166	11
0	1761	2668.773310376028	10
0	1764	2673.484711721501	11
0	1766	2680.865689979922	10
0	1769	2681.52372486449	9
0	1772	2682.298631199763	8
0	1775	2686.257761646858	7
0	1778	2688.031680337217	8
0	1780	2688.955165843703	7
0	1783	2689.215235598035	8
0	1785	2693.25323056921	7
0	1788	2698.223681923868	8
0	1790	2701.560741405647	9
0	1792	2712.191472189237	10
0	1794	2713.155026505902	11
0	1796	2715.03140935515	12
0	1798	2716.551549257725	11
0	1801	2721.646240432857	10
0	1804	2725.824514423313	9
0	1807	2729.049983132802	8
0	1810	2730.40478191625	7
0	1813	2733.380508318114	6
0	1815	2734.241005148553	5
0	1817	2735.720932647955	6
0	1820	2741.958384842462	7
0	1823	2755.204372553472	6
0	1825	2758.745054602022	7
0	1828	2768.265203536731	8
0	1830	2769.20948609073	7
0	1833	2770.651822483885	8
0	1835	2772.727690018164	9
0	1837	2774.2587695313	8
0	1840	2777.59607569168	7
0	1843	2778.7185103265	6
0	1845	2781.357792047755	7
0	1848	2782.896330105114	8
0	1850	2793.355066620745	7
0	1853	2796.492202620707	8
0	1855	2796.655011552886	7
0	1858	2798.264179363916	6
0	1860	2810.605217369601	5
0	1862	2828.706441824864	6
0	1865	2835.187500741628	7
0	1868	2841.000648722271	6
0	1870	2841.003381237775	7
0	1873	2847.037616593197	8
0	1875	2849.4554264344	9
0	1877	2851.386301472112	8
0	1880	2851.670442722036	9
0	1882	2855.905365574317	8
0	1885	2856.62772391208	7
0	1888	2859.457833993597	6
0	1890	2862.403629870744	5
0	1892	2863.437067703743	4
0	1894	2889.636985102358	3
0	1896	2896.366333465748	4
0	1899	2897.148142556905	5
0	1902	2907.29544472612	4
0	1904	2908.067738126333	3
0	1906	2911.693651462313	2
0	1908	2924.06383088592	3
0	1911	2931.039614343701	2
0	1913	2932.011547327983	1
0	1915	2933.124047273025	0
0	1917	2942.264816563062	1
0	1920	2948.801692775117	2
0	1923	2967.255887742822	3
0	1926	2968.992127610701	2
0	1928	2984.395711807001	3
0	1931	2992.417071264203	4
0	1934	2994.090080420106	5
0	1937	2997.402452495993	6
0	1940	3000.017954315607	7
0	1943	3000.576431804964	6
0	1945	3003.45449518368	7
0	1948	3011.196324527525	6
0	1950	3013.095825413678	7
0	1953	3018.882880175915	6
0	1955	3019.43975132219	5
0	1957	3023.451548769299	6
0	1960	3025.737877367286	5
0	1962	3037.765828798512	4
0	1964	3038.452389002274	5
0	1967	3041.305235228318	4
0	1969	3054.324596055106	3
0	1971	3056.645167335265	4
0	1974	3071.063778668573	3
0	1976	3072.166739581281	4
0	1979	3075.867750033854	3
0	1981	3088.342471497241	2
0	1983	3089.615800302335	3
0	1986	3093.762740592683	4
0	1989	3102.921026241404	3
0	1991	3105.871238082363	4
0	1994	3112.20322644287	3
0	1996	3123.368884316916	4
0	1999	3131.587369843449	5
0	2002	3146.814001076702	6
0	2005	3147.517134845717	7
0	2008	3152.133175869555	6
0	2010	3160.452379591958	5
0	2012	3161.155604881691	4
0	2014	3169.462616615742	5
0	2017	3170.872970292927	6
0	2020	3171.49662531785	5
0	2022	3173.79081701981	4
0	2024	3183.182593518793	5
0	2027	3201.488437218953	6
0	2030	3210.333248509045	7
0	2033	3210.407056197164	6
0	2035	3212.060084110099	5
0	2037	3217.793200086748	6
0	2040	3224.746293961571	7
0	2043	3224.820210787823	8
0	2045	3226.168544548752	7
0	2048	3228.545534655814	8
0	2050	3229.401509865054	9
0	2052	3235.624104460363	8
0	2055	3240.14647212657	7
0	2058	3242.504507404039	6
0	2060	3245.477143590498	5
0	2062	3247.384331004299	4
0	2064	3251.926607827775	5
0	2067	3257.490429427283	4
0	2069	3260.639906764701	5
0	2072	3270.923931619727	4
0	2074	3273.541560916117	3
0	2076	3286.177919291474	2
0	2078	3289.734406498418	3
0	2081	3289.775002030243	4
0	2084	3292.446720042145	5
0	2087	3293.849246618096	6
0	2090	3296.764183490479	7
0	2093	3303.129766265618	8
0	2095	3304.882214994195	7
0	2098	3307.095349742258	6
0	2100	3308.448012937537	7
0	2103	3317.866535270981	8
0	2105	3322.626342431534	9
0	2107	3323.96972981136	8
0	2110	3325.971771227032	7
0	2113	3327.930181485987	6
0	2115	3331.069874198584	7
0	2118	3332.656164441712	6
0	2120	3333.592212561718	5
0	2122	3335.67631724635	4
0	2124	3343.528012642029	3
0	2126	3343.945329970469	2
0	2128	3372.632304161299	3
0	2131	3374.523015538162	2
0	2133	3374.663903105455	3
0	2136	3376.211855384057	4
0	2139	3386.175193691502	5
0	2142	3386.321119431581	6
0	2145	3388.487709465408	7
0	2148	3392.03975634115	6
0	2150	3393.935778136588	7
0	2153	3397.084857447355	8
0	2155	3398.660987410581	9
0	2157	3400.003617796498	8
0	2160	3403.91061498721	7
0	2163	3407.494378974159	6
0	2165	3409.639847877345	7
0	2168	3413.291415931057	8
0	2170	3419.092873994264	7
0	2173	3420.045726927785	6
0	2175	3421.681606483685	7
0	2178	3422.68733331023	6
0	2180	3432.587559633907	7
0	2183	3440.400599267094	6
0	2185	3441.477575861942	5
0	2187	3442.14052136792	4
0	2189	3446.651963551611	3
0	2191	3446.942960672912	2
0	2193	3447.723208042736	3
0	2196	3457.933833476255	4
0	2199	3459.535038476882	3
0	2201	3466.508339815027	4
0	2204	3467.031099649103	3
0	2206	3469.454397263291	4
0	2209	3471.287677931547	3
0	2211	3475.312595804861	2
0	2213	3476.174751633079	3
0	2216	3482.431282352127	4
0	2219	3483.218138832859	5
0	2222	3485.808998824625	4
0	2224	3486.482559852135	3
0	2226	3488.905599371787	4
0	2229	3492.572929822483	5
0	2232	3500.665054809195	6
0	2235	3503.130336027517	7
0	2238	3505.436720222296	8
0	2240	3507.674321837119	9
0	2242	3510.446380782263	8
0	2245	3511.347239353778	7
0	2248	3511.694873882713	6
0	2250	3512.374650066639	5
0	2252	3514.804587130919	6
0	2255	3516.394746994675	5
0	2257	3516.861395848355	4
0	2259	3520.423946034658	3
0	2261	3534.708874275573	2
0	2263	3540.096026760349	1
0	2265	3543.703060563463	2
0	2268	3546.757395537418	1
0	2270	3574.568210497743	2
0	2273	3578.563310463089	3
0	2276	3583.899125899022	4
0	2279	3585.517434774216	3
0	2281	3586.992819488313	2
0	2283	3598.972971187206	1
0	2285	3601.70756745106	2
0	2288	3619.839274903104	1
0	2290	3620.631663049338	2
0	2293	3628.610338196328	3
0	2296	3633.169203818037	4
0	2299	3645.839805746929	5
0	2302	3649.28703416288	6
0	2305	3651.619593669092	5
0	2307	3654.874516789286	6
0	2310	3658.317123040308	5
0	2312	3662.98838430082	4
0	2314	3663.161946232809	5
0	2317	3666.039170305679	4
0	2319	3667.920861512466	3
0	2321	3670.043193478571	4
0	2324	3677.420648452501	3
0	2326	3678.886453492024	4
0	2329	3680.717386720661	3
0	2331	3684.312800971041	4
0	2334	3692.223402255033	3
0	2336	3700.283466877506	4
0	2339	3702.021186032317	5
0	2342	3704.114029251238	6
0	2345	3711.64920404437	5
0	2347	3714.368123756471	6
0	2350	3719.900405700473	7
0	2353	3721.401958661987	6
0	2355	3722.537024646615	7
0	2358	3729.326159813764	8
0	2360	3729.523091619277	9
0	2362	3741.23036174907	10
0	2364	3749.526112116163	11
0	2366	3749.882776062344	12
0	2368	3751.442244588321	13
0	2370	3752.615802661725	12
0	2373	3759.676922000964	11
0	2376	3765.872553028011	10
0	2379	3772.599842042653	9
0	2382	3774.719207055705	8
0	2385	3777.512844216705	7
0	2388	3788.689722711301	6
0	2390	3791.303759402612	5
0	2392	3793.140105253587	6
0	2395	3793.3579496236	5
0	2397	3810.410028428321	4
0	2399	3815.708770805976	5
0	2402	3820.786959499275	6
0	2405	3822.954494323769	5
0	2407	3834.439532377059	4
0	2409	3840.577754297605	3
0	2411	3845.407459571926	4
0	2414	3848.030608465376	5
0	2417	3852.807633403923	4
0	2419	3853.585239334081	3
0	2421	3853.70536430246	2
0	2423	3865.137565146214	1
0	2425	3867.738687361471	2
0	2428	3882.840297350068	1
0	2430	3884.937188822223	2
0	2433	3888.635487929357	3
0	2436	3896.549861074111	2
0	2438	3899.653174821949	3
0	2441	3899.77779330236	4
0	2444	3909.9719343326	3
0	2446	3910.600267950084	2
0	2448	3911.923526903902	1
0	2450	3924.250892337638	2
0	2453	3926.051341573278	1
0	2455	3945.335080318923	2
0	2458	3947.780887297752	1
0	2460	3948.547864773305	2
0	2463	3953.019370984229	3
0	2466	3957.389888809651	2
0	2468	3959.456739079868	3
0	2471	3960.2590978976	2
0	2473	3986.663475303059	3
0	2476	3992.064679180615	2
0	2478	3993.458000548756	3
0	2481	3994.413407873616	2
0	2483	4019.967882854032	3
0	2486	4033.105587066785	2
0	2488	4039.399412315765	1
0	2490	4051.397812138857	2
0	2493	4066.736908245739	3
0	2496	4067.363595803964	4
0	2499	4070.153804402716	5
0	2502	4073.072579181675	6
0	2505	4074.631219867907	5
0	2507	4076.962914680542	6
0	2510	4078.65768584212	7
0	2513	4085.40429908779	6
0	2515	4093.183225195988	5
0	2517	4093.895499229722	6
0	2520	4096.39648870089	7
0	2523	4099.445658594523	8
0	2525	4102.283631180705	7
0	2528	4104.758714352013	8
0	2530	4106.244463325158	9
0	2532	4109.974938910667	10
0	2534	4115.925972761403	9
0	2537	4116.484834894933	10
0	2539	4116.582772712173	9
0	2542	4118.536709036761	8
0	2545	4120.500970660262	9
0	2547	4121.385104386189	8
0	2550	4121.704886457285	7
0	2553	4123.248932103744	6
0	2555	4128.882832849005	5
0	2557	4133.693365811146	4
0	2559	4139.131600286629	3
0	2561	4142.511318513809	4
0	2564	4157.385450439873	5
0	2567	4166.912055192765	6
0	2570	4174.450155696312	5
0	2572	4182.121466244443	4
0	2574	4184.027674057902	3
0	2576	4188.188059265711	4
0	2579	4194.940957977761	5
0	2582	4195.525103961563	6
0	2585	4196.342929574017	7
0	2588	4198.217766027499	8
0	2590	4198.234613858466	7
0	2593	4205.854011797716	8
0	2595	4207.543408352058	7
0	2598	4214.751082455476	8
0	2600	4216.456455751333	7
0	2603	4221.196903369476	6
0	2605	4234.133655688764	5
0	2607	4236.695508615187	4
0	2609	4238.588519865125	3
0	2611	4251.635642221704	4
0	2614	4255.189041717461	5
0	2617	4255.536891334978	4
0	2619	4256.396406395148	5
0	2622	4258.742399001202	6
0	2625	4260.067553919471	5
0	2627	4264.586361665056	6
0	2630	4267.386119560994	7
0	2633	4270.868566858006	6
0	2635	4274.571150751896	5
0	2637	4279.743577831866	4
0	2639	4283.586609411771	3
0	2641	4284.174988522609	4
0	2644	4284.542112304596	3
0	2646	4287.290353788579	4
0	2649	4291.564909827646	3
0	2651	4298.090627695239	4
0	2654	4313.196955835912	5
0	2657	4319.79476292334	4
0	2659	4322.749551211449	5
0	2662	4323.924766400148	6
0	2665	4333.623066770527	7
0	2668	4335.49153089107	6
0	2670	4343.496076479544	7
0	2673	4343.497665700307	6
0	2675	4344.001963868685	5
0	2677	4347.06001521024	6
0	2680	4350.012366461411	5
0	2682	4353.223830710495	4
0	2684	4353.498367429868	5
0	2687	4356.278864152816	6
0	2690	4359.092478678974	7
0	2693	4359.255807545292	6
0	2695	4369.168745757432	5
0	2697	4371.750257947408	4
0	2699	4372.351474820756	5
0	2702	4373.83402862323	4
0	2704	4376.706270122507	5
0	2707	4377.003367476652	4
0	2709	4389.996895654399	5
0	2712	4392.364835090147	6
0	2715	4394.515175241693	5
0	2717	4395.277504591641	4
0	2719	4396.673571698085	3
0	2721	4397.539494522565	2
0	2723	4404.608678121929	1
0	2725	4408.508435531187	2
0	2728	4416.072414714153	3
0	2731	4435.629342610419	4
0	2734	4436.31026996611	5
0	2737	4439.541008885661	4
0	2739	4442.039015956235	5
0	2742	4442.080602743962	6
0	2745	4444.666227808887	5
0	2747	4445.176677142138	4
0	2749	4447.650077778972	5
0	2752	4455.558698739701	6
0	2755	4465.852724384657	5
0	2757	4466.675849618797	4
0	2759	4468.366298251574	5
0	2762	4469.949116119066	4
0	2764	4470.094390142991	5
0	2767	4476.149666631449	4
0	2769	4478.492142730013	5
0	2772	4479.080806248592	6
0	2775	4480.491967865381	5
0	2777	4484.501141417689	4
0	2779	4485.253454223182	3
0	2781	4488.765211551074	4
0	2784	4492.809048720581	5
0	2787	4497.895385037986	4
0	2789	4500.870959410074	3
0	2791	4505.518004642216	4
0	2794	4505.934825426479	5
0	2797	4518.620976610564	4
0	2799	4523.593412943081	5
0	2802	4541.009294056611	6
0	2805	4542.144057262724	5
0	2807	4544.309153373126	6
0	2810	4544.533195653762	7
0	2813	4544.889413565662	6
0	2815	4548.300689988867	7
0	2818	4555.21910264797	8
0	2820	4556.008670934679	9
0	2822	4560.383617563243	8
0	2825	4560.625450339426	9
0	2827	4563.343616303014	8
0	2830	4567.532762554489	9
0	2832	4568.537863695476	8
0	2835	4572.554494333654	7
0	2838	4576.45133355474	8
0	2840	4576.744166408712	9
0	2842	4579.925959601399	10
0	2844	4581.486824822954	9
0	2847	4584.938815253215	10
0	2849	4586.286558497272	11
0	2851	4592.54491517699	12
0	2853	4598.819566749473	11
0	2856	4600.561799562041	10
0	2859	4601.915261502385	9
0	2862	4602.341499724645	8
0	2865	4608.943072197393	7
0	2868	4617.266024113016	6
0	2870	4624.613579793363	7
0	2873	4624.776975719792	6
0	2875	4627.314625078892	7
0	2878	4631.286297646733	6
0	2880	4634.927888274362	5
0	2882	4635.555328210617	4
0	2884	4641.92212885227	5
0	2887	4649.071189081909	6
0	2890	4652.715550253094	5
0	2892	4663.548338770046	4
0	2894	4664.823246775769	5
0	2897	4665.071047297542	6
0	2900	4667.375185542168	7
0	2903	4667.679693570789	8
0	2905	4667.996564835614	9
0	2907	4670.537240657222	8
0	2910	4675.572616994785	7
0	2913	4676.498155393069	6
0	2915	4681.831375742523	7
0	2918	4684.722182789699	8
0	2920	4686.709877417132	7
0	2923	4687.108231590687	6
0	2925	4687.644597718505	5
0	2927	4688.294862994463	6
0	2930	4689.730544623509	5
0	2932	4692.2617921098	4
0	2934	4694.456513172319	5
0	2937	4695.543625538006	6
0	2940	4698.707560457192	7
0	2943	4699.98587305386	6
0	2945	4704.61678906014	7
0	2948	4709.679451638785	6
0	2950	4713.475272614186	5
0	2952	4717.542488172955	4
0	2954	4717.576825309281	3
0	2956	4718.692784758516	4
0	2959	4723.21461902554	3
0	2961	4727.260556235191	2
0	2963	4730.449968373678	3
0	2966	4732.984580944448	4
0	2969	4734.929524924648	5
0	2972	4753.459312194428	4
0	2974	4761.806551497624	5
0	2977	4763.820412531234	4
0	2979	4769.608308394359	5
0	2982	4770.084398849422	4
0	2984	4774.497383648904	5
0	2987	4775.211071832061	6
0	2990	4776.584284632588	5
0	2992	4778.83644915861	4
0	2994	4789.973522279517	5
0	2997	4790.398043058152	6
0	3000	4790.810222462353	5
0	3002	4792.127188321446	6
0	3005	4798.190459869648	7
0	3008	4802.429900973864	8
0	3010	4808.653184481425	9
0	3012	4809.413891111362	8
0	3015	4814.653666958293	7
0	3018	4814.973827812386	6
0	3020	4815.751846308838	5
0	3022	4818.271969652703	6
0	3025	4819.955400577641	5
0	3027	4822.234174083483	4
0	3029	4825.162796707809	3
0	3031	4826.388269328617	4
0	3034	4827.5795469912	5
0	3037	4830.767648888084	4
0	3039	4834.195704712088	3
0	3041	4837.939231594852	4
0	3044	4839.078613277373	5
0	3047	4839.489380711522	4
0	3049	4850.472056340315	3
0	3051	4868.86706787947	4
0	3054	4871.279138795093	3
0	3056	4874.944609002341	2
0	3058	4896.796972583497	3
0	3061	4902.607301553255	4
0	3064	4908.616472028598	3
0	3066	4910.592677566138	2
0	3068	4912.638072903319	3
0	3071	4915.758230692335	4
0	3074	4916.093707556915	5
0	3077	4928.778939424222	6
0	3080	4929.125437371398	5
0	3082	4932.849838571964	6
0	3085	4934.842747249382	5
0	3087	4935.37665033665	6
0	3090	4939.923168795099	7
0	3093	4944.53392108859	6
0	3095	4944.547036255878	7
0	3098	4947.280493242	6
0	3100	4954.736500903787	5
0	3102	4955.44899180028	6
0	3105	4956.102633177191	7
0	3108	4958.413274045173	8
0	3110	4958.618694917876	9
0	3112	4960.248694282766	10
0	3114	4964.954793886005	9
0	3117	4966.916646341696	8
0	3120	4967.656747505121	7
0	3123	4969.432534476111	6
0	3125	4979.68036456893	5
0	3127	4981.549146978973	4
0	3129	4986.547734537218	5
0	3132	4987.222382031098	6
0	3135	4997.385643441177	5
0	3137	4997.561531208503	4
0	3139	5001.684523262206	5
0	3142	5006.157853048599	6
0	3145	5015.682994825025	7
0	3148	5019.341104634091	6
0	3150	5025.013839790024	7
0	3153	5029.220717002905	8
0	3155	5029.700361319367	9
0	3157	5031.222813598845	10
0	3159	5050.963787091499	11
0	3161	5052.324752992826	12
0	3163	5054.824293995083	11
0	3166	5055.209948427715	10
0	3169	5056.996975028773	11
0	3171	5059.301022925207	12
0	3173	5061.155168912289	11
0	3176	5061.41954442574	10
0	3179	5061.494279712128	11
0	3181	5061.684694045537	10
0	3184	5064.128936140906	9
0	3187	5066.266057575747	8
0	3190	5067.868605006053	9
0	3192	5068.657214012581	10
0	3194	5073.567988105121	9
0	3197	5076.274732159851	8
0	3200	5078.6880083745	9
0	3202	5079.207786652842	8
0	3205	5080.303625815796	9
0	3207	5088.938748487801	10
0	3209	5097.34551032434	9
0	3212	5098.198933771638	8
0	3215	5100.491122106538	7
0	3218	5101.953457244085	6
0	3220	5110.758325134678	7
0	3223	5113.385623224691	8
0	3225	5119.682410184475	7
0	3228	5121.520493815161	8
0	3230	5144.791938238492	7
0	3233	5145.654495312732	6
0	3235	5146.305321740294	7
0	3238	5148.713634375284	6
0	3240	5152.122201408176	7
0	3243	5162.834340540384	8
0	3245	5169.348910196233	7
0	3248	5171.397136271524	8
0	3250	5171.549633189029	7
0	3253	5172.415381965422	6
0	3255	5175.926376452811	5
0	3257	5177.862980194093	6
0	3260	5182.439949972419	7
0	3263	5190.008193737391	8
0	3265	5195.202453586749	7
0	3268	5200.484025417799	8
0	3270	5202.112061762431	7
0	3273	5202.571058490109	6
0	3275	5204.836328407759	7
0	3278	5205.227465223696	8
0	3280	5207.504755544276	9
0	3282	5213.857895339764	8
0	3285	5214.183127498872	9
0	3287	5216.298908188896	8
0	3290	5217.703240562157	9
0	3292	5219.085187045576	10
0	3294	5224.839450106946	9
0	3297	5225.097034900424	8
0	3300	5230.43064182882	9
0	3302	5231.454805782658	10
0	3304	5231.570790445106	11
0	3306	5234.91773041021	12
0	3308	5235.904773569334	13
0	3310	5236.057805395382	12
0	3313	5236.062207223609	11
0	3316	5236.675090675334	12
0	3318	5237.051845692881	13
0	3320	5237.842959832491	14
0	3322	5238.175611459547	15
0	3324	5241.160523915575	16
0	3326	5243.229436895269	15
0	3329	5248.774911699828	14
0	3332	5249.429165715718	13
0	3335	5252.953251629754	12
0	3338	5256.634147948101	13
0	3340	5263.938017398165	12
0	3343	5271.346557871824	11
0	3346	5275.37346358881	10
0	3349	5281.070792613659	9
0	3352	5286.075015881995	8
0	3355	5287.736901465962	9
0	3357	5292.057155915581	8
0	3360	5297.466826443726	9
0	3362	5299.009004817996	10
0	3364	5304.151281610319	11
0	3366	5304.289762114354	12
0	3368	5305.113417463118	13
0	3370	5316.643289304466	14
0	3372	5322.055432991197	15
0	3374	5335.212347402696	16
0	3376	5336.427733788833	15
0	3379	5337.895736022415	14
0	3382	5338.769509677482	13
0	3385	5340.343950041474	14
0	3387	5341.911045038768	13
0	3390	5343.744856902932	14
0	3392	5344.064269888985	13
0	3395	5345.266414571835	14
0	3397	5345.882738307724	13
0	3400	5349.372090509863	12
0	3403	5350.265446803912	13
0	3405	5354.816639881333	14
0	3407	5363.210045534364	15
0	3409	5365.682735664655	14
0	3412	5367.276738514395	15
0	3414	5367.670755654922	16
0	3416	5370.899976912922	15
0	3419	5373.520618217157	14
0	3422	5375.324535014596	15
0	3424	5379.297053305104	14
0	3427	5381.516299484953	13
0	3430	5385.89696580369	12
0	3433	5387.155326811271	11
0	3436	5395.169710231294	10
0	3439	5395.794826245208	9
0	3442	5398.025179201705	8
0	3445	5399.154864790097	9
0	3447	5399.710663993276	8
0	3450	5402.396004407455	7
0	3453	5407.21978095401	8
0	3455	5415.993360105318	7
0	3458	5419.903078083883	6
0	3460	5420.798878165512	5
0	3462	5423.792820976255	4
0	3464	5424.6401251536	5
0	3467	5425.011023731427	6
0	3470	5427.429531122137	7
0	3473	5428.586969754781	6
0	3475	5431.18460324727	7
0	3478	5431.307986135012	8
0	3480	5439.172986069029	9
0	3482	5440.482196124437	8
0	3485	5446.528449057929	7
0	3488	5452.097463944502	6
0	3490	5460.849754253799	7
0	3493	5466.445269908276	8
0	3495	5472.007102834574	9
0	3497	5473.112284604437	8
0	3500	5478.548331012949	7
0	3503	5481.390074158965	6
0	3505	5482.603647256001	5
0	3507	5487.537898235956	6
0	3510	5488.166143059523	5
0	3512	5492.577128522259	4
0	3514	5493.739308895243	5
0	3517	5501.30076305827	4
0	3519	5502.339106910067	5
0	3522	5511.554294295376	6
0	3525	5512.977117208337	7
0	3528	5515.006833435785	6
0	3530	5520.630918940155	7
0	3533	5521.216378415767	8
0	3535	5529.432965923991	7
0	3538	5529.645732790715	6
0	3540	5535.868217726566	5
0	3542	5544.26013684189	6
0	3545	5552.487289975964	7
0	3548	5553.856382933	6
0	3550	5562.684140384644	5
0	3552	5575.582542117329	6
0	3555	5575.797494676185	7
0	3558	5578.275590086185	6
0	3560	5579.073225447891	5
0	3562	5581.387900610749	4
0	3564	5582.922695373119	3
0	3566	5591.948718884073	4
0	3569	5598.999497954354	5
0	3572	5606.091988082493	4
0	3574	5607.093184444579	5
0	3577	5607.420681100768	4
0	3579	5608.20527732102	3
0	3581	5608.898490616894	2
0	3583	5625.19230947133	1
0	3585	5629.631228099195	2
0	3588	5637.565116295671	1
0	3590	5642.54479359365	2
0	3593	5649.399053164109	3
0	3596	5657.082169238692	2
0	3598	5658.444047359678	3
0	3601	5662.374452893366	4
0	3604	5663.610112924358	3
0	3606	5669.189102554434	4
0	3609	5671.259900156097	3
0	3611	5677.435719936708	4
0	3614	5678.536038460081	5
0	3617	5682.044364328448	4
0	3619	5683.439686163239	5
0	3622	5688.050999204874	4
0	3624	5696.776399451691	5
0	3627	5703.08691430244	6
0	3630	5709.869327019362	5
0	3632	5716.833773267315	6
0	3635	5717.992099924035	5
0	3637	5732.089403920074	4
0	3639	5736.048127370878	3
0	3641	5739.538789927087	4
0	3644	5744.752631525957	3
0	3646	5747.405495397841	4
0	3649	5751.308915543054	5
0	3652	5759.570396595367	4
0	3654	5765.046296011933	5
0	3657	5765.768683105702	4
0	3659	5767.919567899553	3
0	3661	5780.398276060449	2
0	3663	5785.199506852517	1
0	3665	5791.039029903418	2
0	3668	5799.471616613903	3
0	3671	5802.785589167958	2
0	3673	5814.837896571906	1
0	3675	5818.066259760771	0
0	3677	5818.332226131019	1
0	3680	5820.18449896858	2
0	3683	5821.927669061276	3
0	3686	5823.535529971841	2
0	3688	5824.488882903063	3
0	3691	5825.063956155762	4
0	3694	5826.996342444193	5
0	3697	5827.846145165181	6
0	3700	5831.635142887276	7
0	3703	5831.782261989586	8
0	3705	5831.9087822577	7
0	3708	5832.10020209293	8
0	3710	5832.893842182506	9
0	3712	5834.635504174752	8
0	3715	5840.597838238956	9
0	3717	5849.788837168043	10
0	3719	5852.599298224165	9
0	3722	5853.071302335462	10
0	3724	5853.66209934104	11
0	3726	5858.060863978199	10
0	3729	5859.351253864388	9
0	3732	5862.192560652994	10
0	3734	5863.132289732476	9
0	3737	5865.265818144768	10
0	3739	5869.16004319857	11
0	3741	5871.520066863618	10
0	3744	5871.604105567399	9
0	3747	5871.721998058203	8
0	3750	5874.303936220307	7
0	3753	5878.94436903142	6
0	3755	5878.978429584999	5
0	3757	5880.966795450002	4
0	3759	5884.068251557632	5
0	3762	5890.323932336226	4
0	3764	5893.224169654923	5
0	3767	5893.412545707258	6
0	3770	5896.322789735826	5
0	3772	5896.577092263157	4
0	3774	5896.744243390536	5
0	3777	5903.236768444964	4
0	3779	5908.370942839321	3
0	3781	5910.220487366311	4
0	3784	5912.636840070293	5
0	3787	5915.285507784589	6
0	3790	5915.724486361847	5
0	3792	5918.757758739416	4
0	3794	5920.767534414761	5
0	3797	5921.773535332897	6
0	3800	5926.097303523934	5
0	3802	5931.217939008037	6
0	3805	5940.346529655766	5
0	3807	5940.763182329933	6
0	3810	5944.188999239915	7
0	3813	5945.528108271901	6
0	3815	5947.181725327143	5
0	3817	5949.124219492342	4
0	3819	5952.120192561161	5
0	3822	5953.172371825071	4
0	3824	5974.192601622343	5
0	3827	5974.515184428038	4
0	3829	5978.055268025131	3
0	3831	5988.563933486863	2
0	3833	5990.987928541626	3
0	3836	5991.307726757659	4
0	3839	5998.747192999607	3
0	3841	6001.934075314835	4
0	3844	6006.263612161668	5
0	3847	6019.279578505714	6
0	3850	6021.159903970812	5
0	3852	6022.680890721177	4
0	3854	6023.250522195638	3
0	3856	6046.711553792293	4
0	3859	6049.362224707519	5
0	3862	6050.283828025722	4
0	3864	6051.935599240543	3
0	3866	6055.103573668568	2
0	3868	6055.714311863533	3
0	3871	6057.276978221551	4
0	3874	6057.7167064124	3
0	3876	6061.682814452189	4
0	3879	6072.792865544104	5
0	3882	6079.517143748698	6
0	3885	6092.670817335859	7
0	3888	6095.56761967694	6
0	3890	6099.416722810749	5
0	3892	6099.533568813652	6
0	3895	6121.2861273002	5
0	3897	6131.30050349888	4
0	3899	6136.212188256036	3
0	3901	6136.789606480589	4
0	3904	6147.31324492739	5
0	3907	6151.56987979522	6
0	3910	6152.662760604028	7
0	3913	6153.901403375094	6
0	3915	6156.384711926415	7
0	3918	6158.484046627112	6
0	3920	6158.686343944291	7
0	3923	6164.388994952488	6
0	3925	6169.073455733824	5
0	3927	6170.669979866261	6
0	3930	6177.620353353686	7
0	3933	6180.954222707717	8
0	3935	6186.338880609783	7
0	3938	6194.920106827632	6
0	3940	6197.100488848722	7
0	3943	6207.689339511323	6
0	3945	6218.461592540365	7
0	3948	6225.063449027987	8
0	3950	6229.499022138861	7
0	3953	6231.714173071715	6
0	3955	6240.702162237496	7
0	3958	6242.882900717101	8
0	3960	6244.330216777519	7
0	3963	6247.365745573865	8
0	3965	6248.280458582833	7
0	3968	6250.058800698484	6
0	3970	6252.089476832136	5
0	3972	6254.265477020843	4
0	3974	6256.47734026592	5
0	3977	6263.795636135221	4
0	3979	6263.963554507968	3
0	3981	6267.595617910578	4
0	3984	6270.507650083092	3
0	3986	6278.369400200565	4
0	3989	6287.949354713535	3
0	3991	6289.606464219677	4
0	3994	6291.783413677452	5
0	3997	6292.654113819417	6
0	4000	6293.979169272368	5
0	4002	6296.449149074923	6
0	4005	6298.949992041725	5
0	4007	6302.33915931578	4
0	4009	6304.660406416333	3
0	4011	6315.076714500867	4
0	4014	6321.190895498492	5
0	4017	6323.20742095388	4
0	4019	6326.820555465903	5
0	4022	6332.310900277236	6
0	4025	6332.438061669335	5
0	4027	6346.321560764601	6
0	4030	6350.270924243074	7
0	4033	6351.11087514328	6
0	4035	6353.356807683826	7
0	4038	6356.183226163809	8
0	4040	6365.405482415919	7
0	4043	6368.160552857357	6
0	4045	6370.426079967607	5
0	4047	6374.253550686671	6
0	4050	6375.096300488199	7
0	4053	6379.040208164253	8
0	4055	6379.479958362383	9
0	4057	6379.567132778258	10
0	4059	6381.412723710205	9
0	4062	6388.644632202318	8
0	4065	6395.645626607486	7
0	4068	6395.650181406723	6
0	4070	6405.03163094978	7
0	4073	6420.976844009686	6
0	4075	6423.894888949309	7
0	4078	6424.830420501016	6
0	4080	6438.920916155806	7
0	4083	6439.686721039462	8
0	4085	6443.193584884721	9
0	4087	6446.270813884437	10
0	4089	6447.867249860959	9
0	4092	6451.589957887386	8
0	4095	6464.37288084193	7
0	4098	6465.771172271327	6
0	4100	6469.126914654767	5
0	4102	6471.406295921594	6
0	4105	6471.685863559397	5
0	4107	6475.650817386187	4
0	4109	6477.609384999409	3
0	4111	6478.313882392734	2
0	4113	6495.382074664215	3
0	4116	6504.417201375168	4
0	4119	6506.73099024639	3
0	4121	6521.512496162679	2
0	4123	6528.480798282755	3
0	4126	6533.751088181601	4
0	4129	6540.346125698602	3
0	4131	6540.567066519751	4
0	4134	6546.001425607049	5
0	4137	6547.522091676733	4
0	4139	6553.99526630752	5
0	4142	6554.690930379309	6
0	4145	6559.451047745923	7
0	4148	6560.220528730413	8
0	4150	6561.270731257808	7
0	4153	6562.996710914849	8
0	4155	6570.376004851867	9
0	4157	6573.563895545698	10
0	4159	6575.528989842408	9
0	4162	6576.659585355681	8
0	4165	6577.910235748381	7
0	4168	6579.769565027798	6
0	4170	6580.018061507935	7
0	4173	6585.009225446167	6
0	4175	6588.948650256527	7
0	4178	6590.86210097225	8
0	4180	6602.028803756367	9
0	4182	6606.149822352744	8
0	4185	6614.685519811674	7
0	4188	6625.407846640095	8
0	4190	6629.144768209495	7
0	4193	6635.799422140705	6
0	4195	6637.95340994304	7
0	4198	6639.932962287139	6
0	4200	6643.910444401669	5
0	4202	6644.248296068912	4
0	4204	6647.270893702609	3
0	4206	6650.113700194359	4
0	4209	6662.58434862949	5
0	4212	6662.597246731891	4
0	4214	6663.547822429746	5
0	4217	6663.993397828258	4
0	4219	6664.312917965607	5
0	4222	6665.308016006984	4
0	4224	6670.055324408988	3
0	4226	6684.062578701444	2
0	4228	6685.693892862666	3
0	4231	6691.150289553553	4
0	4234	6699.419192775955	3
0	4236	6700.39581413499	2
0	4238	6720.424299891102	3
0	4241	6720.898553491563	4
0	4244	6732.730459119923	3
0	4246	6761.726851013087	2
0	4248	6764.933891338682	3
0	4251	6771.313581980899	4
0	4254	6771.773523070035	5
0	4257	6776.433965204612	6
0	4260	6787.119856640514	7
0	4263	6802.528502134988	6
0	4265	6804.612806029431	7
0	4268	6810.928586657249	8
0	4270	6814.386119576873	9
0	4272	6815.291285094651	8
0	4275	6823.081930023291	7
0	4278	6824.174939550589	8
0	4280	6825.170987341481	9
0	4282	6839.174296194781	8
0	4285	6845.890861847947	7
0	4288	6852.871812082015	8
0	4290	6854.106273294407	9
0	4292	6859.035330911274	8
0	4295	6861.152884995153	7
0	4298	6863.425059454737	8
0	4300	6871.062758942703	7
0	4303	6872.798331741324	6
0	4305	6874.892503692483	7
0	4308	6885.077797608777	6
0	4310	6888.08658242065	5
0	4312	6889.402771530376	6
0	4315	6889.506897430198	5
0	4317	6892.026488760803	4
0	4319	6892.622867769252	3
0	4321	6897.10601688669	4
0	4324	6913.237372741963	5
0	4327	6914.090242442348	6
0	4330	6916.802861905571	5
0	4332	6922.496511997258	4
0	4334	6922.751185683101	3
0	4336	6928.675290737706	4
0	4339	6929.378134895528	5
0	4342	6933.820416941365	6
0	4345	6943.478084744972	7
0	4348	6945.492244164358	8
0	4350	6946.096612873146	9
0	4352	6950.138696613176	10
0	4354	6955.622365934046	9
0	4357	6955.914180308147	8
0	4360	6961.905264954532	7
0	4363	6963.661404270211	6
0	4365	6963.940183322974	7
0	4368	6975.829260431175	6
0	4370	6978.857851842462	5
0	4372	6979.292716646316	4
0	4374	6981.737543051852	5
0	4377	6986.847726234237	4
0	4379	6991.537541205664	5
0	4382	6992.80580166795	6
0	4385	6993.484591647397	7
0	4388	6998.225002782533	6
0	4390	6999.245880793701	7
0	4393	6999.955111728875	8
0	4395	7002.079638690883	9
0	4397	7009.429832868968	8
0	4400	7018.022227656437	7
0	4403	7022.152006851643	6
0	4405	7022.975649370266	5
0	4407	7026.650304273878	4
0	4409	7027.863890773117	3
0	4411	7036.603307103451	4
0	4414	7043.568215435284	5
0	4417	7047.318916058134	6
0	4420	7051.348323911503	5
0	4422	7063.229203852662	6
0	4425	7064.366013943127	5
0	4427	7066.933645853088	6
0	4430	7076.036742697142	5
0	4432	7078.17637977964	4
0	4434	7083.919788039795	5
0	4437	7085.563629551441	4
0	4439	7091.016940875154	3
0	4441	7097.324391379746	4
0	4444	7099.485069285588	5
0	4447	7110.957672673538	4
0	4449	7114.6290510542	3
0	4451	7123.022385622973	4
0	4454	7132.021836452459	3
0	4456	7142.083528730493	4
0	4459	7148.764652300631	3
0	4461	7165.008332156939	2
0	4463	7170.310599400727	1
0	4465	7176.233720920515	2
0	4468	7183.403444407542	3
0	4471	7191.889384503367	2
0	4473	7194.602638186488	3
0	4476	7198.051588053599	4
0	4479	7200.248656083401	3
0	4481	7201.827755997809	4
0	4484	7211.680733770237	5
0	4487	7212.378285749466	6
0	4490	7217.635384628012	7
0	4493	7222.555137509452	6
0	4495	7229.645325084581	7
0	4498	7233.443686942972	8
0	4500	7236.212872677258	7
0	4503	7237.687141231579	6
0	4505	7239.982570196872	7
0	4508	7249.751097702703	8
0	4510	7253.932813227577	7
0	4513	7254.167362763505	8
0	4515	7254.58826584172	7
0	4518	7256.455221836342	8
0	4520	7261.824416814956	7
0	4523	7275.401123527223	8
0	4525	7275.828306396441	7
0	4528	7278.607959940418	8
0	4530	7279.551001587632	9
0	4532	7280.133590319675	8
0	4535	7284.110680282555	9
0	4537	7289.538721135079	10
0	4539	7291.879550997108	11
0	4541	7291.970899710747	12
0	4543	7296.030223273445	11
0	4546	7296.127168299237	12
0	4548	7301.186003286444	13
0	4550	7302.37255322828	12
0	4553	7307.965216134628	13
0	4555	7308.428819585699	14
0	4557	7319.235430088987	15
0	4559	7320.247358061615	16
0	4561	7322.974852591444	15
0	4564	7331.907785725364	16
0	4566	7332.90799558495	17
0	4568	7334.114940919626	16
0	4571	7336.099462673562	15
0	4574	7340.792897998679	14
0	4577	7346.751370039076	15
0	4579	7355.131917046358	16
0	4581	7366.039156607504	17
0	4583	7368.853941765911	16
0	4586	7369.307475451864	15
0	4589	7372.61629375208	14
0	4592	7377.003938188432	15
0	4594	7381.369470537751	14
0	4597	7383.164089499762	13
0	4600	7386.145440329104	14
0	4602	7386.432247206415	13
0	4605	7391.230885820681	12
0	4608	7393.149870566397	13
0	4610	7395.31916061696	14
0	4612	7408.250200457363	13
0	4615	7413.199580427633	12
0	4618	7417.915092608686	11
0	4621	7418.929581888915	10
0	4624	7421.516923087125	11
0	4626	7425.606500571643	12
0	4628	7426.931909619638	11
0	4631	7429.364873238845	12
0	4633	7434.561206535743	13
0	4635	7437.252959829914	14
0	4637	7437.94519421174	15
0	4639	7452.479966415952	14
0	4642	7454.18121460346	15
0	4644	7454.707630022827	14
0	4647	7460.193700625585	15
0	4649	7462.218357145938	16
0	4651	7462.679672003029	15
0	4654	7466.80473031772	16
0	4656	7469.533133665499	15
0	4659	7478.215487706786	14
0	4662	7482.397348739248	13
0	4665	7483.986015301828	12
0	4668	7489.294066910616	11
0	4671	7493.227690121002	12
0	4673	7494.248292959127	11
0	4676	7506.188011659261	12
0	4678	7506.285843175869	13
0	4680	7510.177880437729	12
0	4683	7513.200039480167	11
0	4686	7515.199324524332	10
0	4689	7525.275902916989	9
0	4692	7529.243649881511	8
0	4695	7536.212076198593	7
0	4698	7536.783505021731	8
0	4700	7540.261659592099	7
0	4703	7546.908605680369	6
0	4705	7560.5567355503	5
0	4707	7564.803721221519	6
0	4710	7571.299257785335	7
0	4713	7571.652209808688	8
0	4715	7572.938799090875	7
0	4718	7574.769176776185	8
0	4720	7578.865711204345	7
0	4723	7583.405114568318	6
0	4725	7591.829350122498	5
0	4727	7592.51094692792	6
0	4730	7592.865913056822	7
0	4733	7598.867059025746	8
0	4735	7606.997783209643	7
0	4738	7608.646844688578	6
0	4740	7611.006453684271	5
0	4742	7619.551241459143	6
0	4745	7623.453107835395	5
0	4747	7641.796609557072	4
0	4749	7647.216085487172	3
0	4751	7659.205865183098	4
0	4754	7661.184183020737	3
0	4756	7679.32375158565	4
0	4759	7679.937042585049	5
0	4762	7682.270458003859	6
0	4765	7688.727335229169	7
0	4768	7698.237673999812	8
0	4770	7702.464407195583	7
0	4773	7713.120430311243	6
0	4775	7722.187393682668	5
0	4777	7726.106276776263	6
0	4780	7726.733728250801	7
0	4783	7727.300197135258	6
0	4785	7732.657279761872	7
0	4788	7733.562754576271	6
0	4790	7734.111521521221	7
0	4793	7736.716043869739	6
0	4795	7737.529582638524	5
0	4797	7740.268628467107	4
0	4799	7742.052547849609	5
0	4802	7744.007578356649	6
0	4805	7753.526788283477	7
0	4808	7756.31750770418	8
0	4810	7758.391275485114	7
0	4813	7758.392736298011	6
0	4815	7759.50684656456	5
0	4817	7761.166529743221	6
0	4820	7781.852504589388	5
0	4822	7784.009916193198	4
0	4824	7785.394429843263	3
0	4826	7798.09792361152	2
0	4828	7805.007873096578	3
0	4831	7812.909266469131	4
0	4834	7822.459467792662	5
0	4837	7829.482074726117	6
0	4840	7832.322029954422	5
0	4842	7833.360762784781	6
0	4845	7836.675160385017	5
0	4847	7851.874624778819	6
0	4850	7854.958909648144	5
0	4852	7861.631422842572	4
0	4854	7862.562498781062	5
0	4857	7862.934590464691	6
0	4860	7882.679396592215	7
0	4863	7885.318138348429	8
0	4865	7889.087083626188	7
0	4868	7889.274996334452	6
0	4870	7901.752120613242	5
0	4872	7910.813745954319	6
0	4875	7920.648884604719	5
0	4877	7923.665193970334	4
0	4879	7933.67800102751	3
0	4881	7934.845715096078	4
0	4884	7935.322559330465	5
0	4887	7936.758623879906	4
0	4889	7952.99996586262	5
0	4892	7954.627058839649	4
0	4894	7957.013859574277	5
0	4897	7960.158630974885	4
0	4899	7961.879261695904	5
0	4902	7962.643326994358	4
0	4904	7962.78242628618	5
0	4907	7966.447562439408	4
0	4909	7970.525890595816	5
0	4912	7973.79758110621	6
0	4915	7975.741729362029	5
0	4917	7976.106382416388	4
0	4919	7976.396568469419	5
0	4922	7977.884120468647	6
0	4925	7979.551353774591	7
0	4928	7987.878215663705	8
0	4930	7988.654340837614	7
0	4933	7989.931079261313	6
0	4935	7991.865858172131	5
0	4937	7992.862684497814	6
0	4940	7996.794377513387	7
0	4943	8000.282005841188	8
0	4945	8002.366638088238	9
0	4947	8009.376587774274	10
0	4949	8011.849881300874	11
0	4951	8012.231527217772	10
0	4954	8012.497259607581	11
0	4956	8016.071871202939	12
0	4958	8019.701328345503	11
0	4961	8022.568674507097	10
0	4964	8023.002747331481	9
0	4967	8023.989763396447	8
0	4970	8036.717472640154	7
0	4973	8037.034044427796	6
0	4975	8037.242408300643	5
0	4977	8044.789175056028	4
0	4979	8045.391552159958	5
0	4982	8047.799850825513	6
0	4985	8047.997453965018	5
0	4987	8049.662726795467	4
0	4989	8068.165737146109	3
0	4991	8073.477849045503	2
0	4993	8081.291101248689	1
0	4995	8082.070777658244	2
0	4998	8086.900752698801	3
0	5001	8095.812150125632	2
0	5003	8096.483663877313	3
0	5006	8096.746461028107	4
0	5009	8098.40022996125	3
0	5011	8099.133026361609	2
0	5013	8102.891088531701	3
0	5016	8105.516493795883	4
0	5019	8108.479528172821	5
0	5022	8112.716969162968	6
0	5025	8124.847926449706	5
0	5027	8126.164226499981	6
0	5030	8133.550384322384	7
0	5033	8140.432263154726	6
0	5035	8142.785021099867	7
0	5038	8143.79001048798	6
0	5040	8145.313208685821	7
0	5043	8146.732997971427	8
0	5045	8147.719057198001	7
0	5048	8147.876436725806	8
0	5050	8157.105012201139	7
0	5053	8163.839659679907	6
0	5055	8165.602927313326	5
0	5057	8167.222845682658	6
0	5060	8167.85692636879	7
0	5063	8169.4018509531	6
0	5065	8172.128981198459	5
0	5067	8180.864250297972	4
0	5069	8181.688882437718	5
0	5072	8185.755345556159	4
0	5074	8191.50012866119	3
0	5076	8192.317574947053	2
0	5078	8204.267393797421	3
0	5081	8212.40232116729	2
0	5083	8226.2900159091	1
0	5085	8227.781274810251	0
0	5087	8228.201302133771	1
0	5090	8232.512895495186	2
0	5093	8242.861727612983	3
0	5096	8242.942905065151	2
0	5098	8248.707026702869	1
0	5100	8249.823907957666	2
0	5103	8257.427140040131	3
0	5106	8272.049097175718	2
0	5108	8277.551045528791	3
0	5111	8281.104869687812	2
0	5113	8281.88466557626	3
0	5116	8282.575653479898	4
0	5119	8304.16780023236	5
0	5122	8304.917357608758	4
0	5124	8309.075965398483	3
0	5126	8320.910380706877	4
0	5129	8330.330661413232	3
0	5131	8336.993519738202	4
0	5134	8343.409860176864	5
0	5137	8343.780043699209	6
0	5140	8345.22104437962	7
0	5143	8345.434810931463	8
0	5145	8349.672909560357	9
0	5147	8353.451691578691	10
0	5149	8357.76068981124	9
0	5152	8363.076527644685	8
0	5155	8364.891225285122	7
0	5158	8365.477995419353	8
0	5160	8374.115108477133	7
0	5163	8378.787177052185	8
0	5165	8384.02428433331	9
0	5167	8389.892199369402	8
0	5170	8397.656933505117	7
0	5173	8409.643060206861	6
0	5175	8410.057807150451	5
0	5177	8418.938488001609	6
0	5180	8423.483957421795	5
0	5182	8424.992452310638	4
0	5184	8434.04290170932	3
0	5186	8441.515674521806	2
0	5188	8444.741383991655	1
0	5190	8452.690163571205	2
0	5193	8453.994239659329	3
0	5196	8457.776558505054	4
0	5199	8462.506006551031	3
0	5201	8463.607685613055	2
0	5203	8464.990351528485	3
0	5206	8467.205193186991	2
0	5208	8474.348329727994	1
0	5210	8476.067223480367	2
0	5213	8479.903013130854	3
0	5216	8483.89668595591	4
0	5219	8511.926354048346	5
0	5222	8513.229955332365	4
0	5224	8514.734528097717	3
0	5226	8523.338065340347	2
0	5228	8526.062774349409	3
0	5231	8531.693331057917	2
0	5233	8540.830080100776	3
0	5236	8545.01384076442	2
0	5238	8547.564769896635	3
0	5241	8562.142290383233	4
0	5244	8562.66723746445	5
0	5247	8567.726562032943	6
0	5250	8568.026697285109	7
0	5253	8572.31337676846	8
0	5255	8573.462973786068	9
0	5257	8574.229378843022	8
0	5260	8576.018084922147	9
0	5262	8576.1282152512	10
0	5264	8576.592430986807	11
0	5266	8576.911519646693	10
0	5269	8577.219229296843	11
0	5271	8581.729877833451	10
0	5274	8582.205260717213	9
0	5277	8585.276899978627	8
0	5280	8585.506860977892	7
0	5283	8587.054019469887	6
0	5285	8593.222638180939	7
0	5288	8594.690049408835	6
0	5290	8596.212763778344	5
0	5292	8602.636467336901	6
0	5295	8603.533730511126	5
0	5297	8612.711624638625	4
0	5299	8613.756642101119	3
0	5301	8616.045406839959	4
0	5304	8620.950583189843	3
0	5306	8622.159910732307	4
0	5309	8635.969171628491	3
0	5311	8649.456222997572	2
0	5313	8678.19472558788	1
0	5315	8678.315049838959	0
0	5317	8687.53951511868	1
0	5320	8698.627014292619	2
0	5323	8702.471877336521	1
0	5325	8744.185988083923	2
0	5328	8763.736021152686	3
0	5331	8770.22123389916	4
0	5334	8771.997032314232	3
0	5336	8772.831458807618	2
0	5338	8777.25993102776	3
0	5341	8785.397300897785	2
0	5343	8788.982195594312	3
0	5346	8794.787591829239	2
0	5348	8795.218649377136	1
0	5350	8799.342741977825	2
0	5353	8814.864215298095	1
0	5355	8822.512114758726	2
0	5358	8833.832339069426	3
0	5361	8839.051666799565	2
0	5363	8843.526140897769	1
0	5365	8848.990515148804	2
0	5368	8852.787114704021	3
0	5371	8855.060334281174	4
0	5374	8857.267256505942	5
0	5377	8862.057871146967	6
0	5380	8863.893632619569	7
0	5383	8865.00000338467	8
0	5385	8867.316860724378	9
0	5387	8869.471610764731	8
0	5390	8872.222001535238	7
0	5393	8872.601388012016	6
0	5395	8873.569132748735	5
0	5397	8882.796589231665	4
0	5399	8891.958651389202	5
0	5402	8894.528361429403	6
0	5405	8896.994736270465	5
0	5407	8901.983143075504	6
0	5410	8903.840896439049	7
0	5413	8905.917726244563	8
0	5415	8907.583057128588	7
0	5418	8909.395925744114	6
0	5420	8912.659968382947	5
0	5422	8913.99280511659	4
0	5424	8915.948660002068	3
0	5426	8917.452844720601	2
0	5428	8922.762082890532	3
0	5431	8929.791695620661	2
0	5433	8931.672719157258	3
0	5436	8934.348913086677	2
0	5438	8942.990241174018	3
0	5441	8950.691604795851	4
0	5444	8951.075858719601	5
0	5447	8954.623222471383	6
0	5450	8957.126373567078	7
0	5453	8958.090686551483	8
0	5455	8958.270162718553	9
0	5457	8959.207460686157	8
0	5460	8964.354199362833	7
0	5463	8967.177693038082	8
0	5465	8968.765047492455	7
0	5468	8970.069194163208	6
0	5470	8972.693567233116	7
0	5473	8973.194050688288	6
0	5475	8973.341633335929	5
0	5477	8974.215298655491	4
0	5479	8977.471457756321	3
0	5481	8978.570450571315	4
0	5484	8979.743927037353	3
0	5486	8982.773773548304	2
0	5488	8983.743776707155	3
0	5491	8995.582233308994	4
0	5494	8996.211029874225	3
0	5496	9004.151871522603	2
0	5498	9009.822690344206	3
0	5501	9014.359621841705	2
0	5503	9015.69716929029	3
0	5506	9018.639949001219	4
0	5509	9033.934109701107	5
0	5512	9044.927053723016	4
0	5514	9047.493454393115	5
0	5517	9053.085330102524	4
0	5519	9053.915487303822	5
0	5522	9058.568673491024	4
0	5524	9071.844467956207	3
0	5526	9081.445085956041	4
0	5529	9081.906364140811	3
0	5531	9082.785973013983	2
0	5533	9086.323992205451	1
0	5535	9088.03000260885	2
0	5538	9088.770506630434	3
0	5541	9099.644600011983	2
0	5543	9105.512575831569	3
0	5546	9118.067310434791	4
0	5549	9122.200488962688	5
0	5552	9123.049889646603	4
0	5554	9129.332413472783	5
0	5557	9130.483517115128	6
0	5560	9135.71563617471	7
0	5563	9135.949276347208	8
0	5565	9138.565014873714	7
0	5568	9140.261903191222	6
0	5570	9140.314487209743	7
0	5573	9151.570946746536	8
0	5575	9163.855550462178	9
0	5577	9167.411984909978	8
0	5580	9171.602742196409	9
0	5582	9179.761772633757	10
0	5584	9180.985001139632	9
0	5587	9185.543628806729	8
0	5590	9189.503095260281	9
0	5592	9193.815725260899	8
0	5595	9195.985007513181	7
0	5598	9202.582973777588	8
0	5600	9204.498825699737	9
0	5602	9223.175648293481	10
0	5604	9224.34854867149	11
0	5606	9226.33323368647	10
0	5609	9228.7805862453	9
0	5612	9232.031821382421	10
0	5614	9232.149033184277	11
0	5616	9234.158530155612	10
0	5619	9235.206006075222	9
0	5622	9240.050390917151	8
0	5625	9253.256968144285	7
0	5628	9255.997080630917	6
0	5630	9256.881287330483	5
0	5632	9263.632481044788	6
0	5635	9267.085979095438	7
0	5638	9274.163868363003	6
0	5640	9274.579719648766	7
0	5643	9280.057393847284	6
0	5645	9280.886149607447	5
0	5647	9281.710898566093	6
0	5650	9289.809883342463	7
0	5653	9293.793738317419	8
0	5655	9300.267872075934	9
0	5657	9304.870428655011	10
0	5659	9305.633728514158	11
0	5661	9308.489709513516	10
0	5664	9311.616030125207	9
0	5667	9319.569860144708	8
0	5670	9319.785399873335	7
0	5673	9324.394220829297	8
0	5675	9326.717835756272	7
0	5678	9331.803071870859	6
0	5680	9333.254650638268	5
0	5682	9334.674808390873	4
0	5684	9334.762838741964	5
0	5687	9338.1876596616	6
0	5690	9344.530450605445	7
0	5693	9350.189719658004	6
0	5695	9350.302650793886	7
0	5698	9351.980102609746	6
0	5700	9355.098600559335	7
0	5703	9357.632878041757	6
0	5705	9359.659238097448	5
0	5707	9367.345574408272	6
0	5710	9368.429935637498	5
0	5712	9374.880900946509	4
0	5714	9377.874798877175	3
0	5716	9386.651140783437	4
0	5719	9386.728081331178	3
0	5721	9390.691781887739	4
0	5724	9393.521894834171	5
0	5727	9393.76628852944	4
0	5729	9401.306618662846	5
0	5732	9407.238636342474	6
0	5735	9411.137299117933	5
0	5737	9414.715904041144	4
0	5739	9423.103761433424	5
0	5742	9432.672906210386	6
0	5745	9433.154816046596	5
0	5747	9442.352641465928	4
0	5749	9456.562428740528	5
0	5752	9465.165326137691	4
0	5754	9469.298033667622	5
0	5757	9470.570688676592	6
0	5760	9471.16172472424	5
0	5762	9475.490506649479	6
0	5765	9481.927323218045	5
0	5767	9483.978166619974	4
0	5769	9489.742338245785	3
0	5771	9493.120949818006	2
0	5773	9496.383808653673	3
0	5776	9511.14972057235	4
0	5779	9516.569742763082	5
0	5782	9528.289595094612	6
0	5785	9530.679478791901	7
0	5788	9531.227731005468	8
0	5790	9536.144426818588	9
0	5792	9536.519996325581	10
0	5794	9549.187730378138	9
0	5797	9549.947046019086	8
0	5800	9559.626564748565	7
0	5803	9560.933394763905	6
0	5805	9561.491561581518	5
0	5807	9562.176820901946	4
0	5809	9567.829219346347	5
0	5812	9569.204713211224	4
0	5814	9575.5868712877	5
0	5817	9577.71840372419	4
0	5819	9581.014801661648	5
0	5822	9584.429293161593	6
0	5825	9587.618221433126	7
0	5828	9589.495202844976	8
0	5830	9594.094878738712	7
0	5833	9597.403420809374	6
0	5835	9597.523092993202	7
0	5838	9603.34267410717	6
0	5840	9604.45643240755	7
0	5843	9606.653460159252	8
0	5845	9609.996554212577	9
0	5847	9610.295464729296	8
0	5850	9610.627716654015	9
0	5852	9616.792495264874	10
0	5854	9617.896297042408	11
0	5856	9622.82755173264	12
0	5858	9623.923699132199	13
0	5860	9630.446439247176	12
0	5863	9630.955005716815	13
0	5865	9632.273084967023	14
0	5867	9634.479246731299	13
0	5870	9636.363697496813	14
0	5872	9637.559378022486	15
0	5874	9647.129202929669	16
0	5876	9653.122338381174	15
0	5879	9653.653534509925	14
0	5882	9655.321875344696	15
0	5884	9656.910139190606	16
0	5886	9658.516110012075	17
0	5888	9665.244915357756	16
0	5891	9668.055137959044	17
0	5893	9671.11508079639	16
0	5896	9671.448252513376	17
0	5898	9675.691871146063	18
0	5900	9677.483799106142	17
0	5903	9679.874951926099	16
0	5906	9688.027655890262	15
0	5909	9693.083713866923	14
0	5912	9693.859663678266	15
0	5914	9701.386849063338	14
0	5917	9709.249182590273	13
0	5920	9710.451641734714	14
0	5922	9715.346873323267	13
0	5925	9715.590690816588	14
0	5927	9721.383436575107	15
0	5929	9728.726585134691	14
0	5932	9730.193749226736	15
0	5934	9738.71000996947	14
0	5937	9742.968923030294	13
0	5940	9744.718684089507	12
0	5943	9747.829177006706	11
0	5946	9750.654474309786	10
0	5949	9758.845338001248	9
0	5952	9759.121861373198	10
0	5954	9760.634889505013	11
0	5956	9764.855959492983	10
0	5959	9768.004017320113	11
0	5961	9768.907358197262	10
0	5964	9769.712425209207	11
0	5966	9771.739691449378	12
0	5968	9772.073509135005	13
0	5970	9773.893834333742	12
0	5973	9777.076340075357	11
0	5976	9777.499939064849	10
0	5979	9778.166959339167	9
0	5982	9780.486819050039	8
0	5985	9781.912256707963	7
0	5988	9785.871879066465	8
0	5990	9787.352257803205	9
0	5992	9790.738227431412	10
0	5994	9793.350612421453	11
0	5996	9796.767627316303	12
0	5998	9797.478109021587	11
0	6001	9798.326121917236	12
0	6003	9798.584693446049	13
0	6005	9799.327780713921	14
0	6007	9802.675910996263	13
0	6010	9805.693035880123	14
0	6012	9806.721485551846	15
0	6014	9812.837316423773	16
0	6016	9813.41648581523	15
0	6019	9813.835655268376	14
0	6022	9816.866140418876	13
0	6025	9817.77835115898	14
0	6027	9821.298697809979	15
0	6029	9823.147435452256	16
0	6031	9828.328596895111	15
0	6034	9829.127310758095	14
0	6037	9832.7242775066	13
0	6040	9836.128478106585	12
0	6043	9839.695075899986	11
0	6046	9840.227035175131	10
0	6049	9841.11837898182	11
0	6051	9842.842574511331	10
0	6054	9844.742227896766	11
0	6056	9845.844823724657	12
0	6058	9849.868195796126	11
0	6061	9851.444865211512	12
0	6063	9853.180401851603	11
0	6066	9854.649874059252	12
0	6068	9856.584441563491	11
0	6071	9859.574628663221	10
0	6074	9861.962750700351	9
0	6077	9864.029533541636	10
0	6079	9866.761542976282	9
0	6082	9867.133475921487	10
0	6084	9867.454321772072	11
0	6086	9867.860088089881	10
0	6089	9868.228969614778	11
0	6091	9874.122424801026	10
0	6094	9879.619512790207	9
0	6097	9881.080923645276	10
0	6099	9886.329976245434	11
0	6101	9886.667994757721	10
0	6104	9891.416448674261	9
0	6107	9894.238725778338	10
0	6109	9896.586766075259	9
0	6112	9901.067832552388	8
0	6115	9903.551224446511	9
0	6117	9904.233587884708	10
0	6119	9904.27830730561	9
0	6122	9907.01606038029	8
0	6125	9907.207284871067	7
0	6128	9909.967486097126	8
0	6130	9913.036681400564	7
0	6133	9913.571895338347	6
0	6135	9915.380502175341	5
0	6137	9921.192651156537	4
0	6139	9926.512564038295	5
0	6142	9927.878658776756	6
0	6145	9948.172207569781	7
0	6148	9948.900721742779	6
0	6150	9951.961550639228	7
0	6153	9952.465733315091	8
0	6155	9952.486520506792	9
0	6157	9955.079935244646	10
0	6159	9967.796787822495	9
0	6162	9971.139007408711	8
0	6165	9971.297831530246	9
0	6167	9973.820299048358	8
0	6170	9980.741464082518	7
0	6173	9984.425312970065	8
0	6175	9985.131740875731	9
0	6177	9985.947157495467	8
0	6180	9989.023871913901	7
0	6183	9991.287094799364	6
0	6185	9991.391521535895	5
0	6187	9996.166598774413	6
0	6190	9996.52481762617	5
0	6192	9998.001249771692	4
0	6194	9998.570780422608	3
0	6196	10003.442670641365	4
0	6199	10005.074507689727	5
0	6202	10011.73113464285	4
0	6204	10011.828187998018	3
0	6206	10014.065384145535	2
0	6208	10030.911941276221	1
0	6210	10039.372312354196	2
0	6213	10041.251504596178	3
0	6216	10047.404660457403	4
0	6219	10051.106941338872	5
0	6222	10053.30816538934	4
0	6224	10055.770068422326	3
0	6226	10071.727513935833	4
0	6229	10077.028814501762	5
0	6232	10077.807962221718	4
0	6234	10079.183534738883	5
0	6237	10079.511516974087	4
0	6239	10086.388659915296	3
0	6241	10086.887549414676	4
0	6244	10091.754912313298	3
0	6246	10098.302994147019	4
0	6249	10101.985494665778	5
0	6252	10102.584566330125	4
0	6254	10106.090744400653	3
0	6256	10108.047249144534	4
0	6259	10108.064837253652	3
0	6261	10112.711783520442	2
0	6263	10113.014378018105	3
0	6266	10123.212861487488	4
0	6269	10131.029866121923	3
0	6271	10134.222693084404	4
0	6274	10134.737647708784	5
0	6277	10135.036631343351	6
0	6280	10136.315531933518	7
0	6283	10136.597915321435	6
0	6285	10138.643024955271	7
0	6288	10138.990638025186	6
0	6290	10139.785834361109	7
0	6293	10142.481108910368	6
0	6295	10144.950504960214	5
0	6297	10148.220898213261	4
0	6299	10149.781769256859	5
0	6302	10151.655832729697	4
0	6304	10152.892849652849	3
0	6306	10154.43371197593	2
0	6308	10154.907389076015	1
0	6310	10156.281676386307	0
0	6312	10159.078417094582	1
0	6315	10177.124550897766	2
0	6318	10189.993684238396	1
0	6320	10192.010375714365	2
0	6323	10197.744608570121	3
0	6326	10208.822692247224	4
0	6329	10214.8989283179	5
0	6332	10215.146497014256	6
0	6335	10216.053387689721	7
0	6338	10218.423394383736	6
0	6340	10223.91583953695	5
0	6342	10229.546944888396	4
0	6344	10231.317232031186	3
0	6346	10232.205578588161	4
0	6349	10234.084832484471	3
0	6351	10236.950724602899	4
0	6354	10240.44818733256	5
0	6357	10246.533041682323	6
0	6360	10250.581920232893	7
0	6363	10252.803462685151	8
0	6365	10253.689745841695	9
0	6367	10256.199142737751	10
0	6369	10257.509398371622	9
0	6372	10260.531176578994	8
0	6375	10262.710340410317	7
0	6378	10263.523677873805	6
0	6380	10264.877504717813	5
0	6382	10266.896287948132	6
0	6385	10268.877952098611	5
0	6387	10270.685607821069	6
0	6390	10272.295528219614	7
0	6393	10272.45773108842	8
0	6395	10279.097994867312	9
0	6397	10280.550066237294	8
0	6400	10282.207792949386	9
0	6402	10284.569614744931	8
0	6405	10287.029602349268	7
0	6408	10296.904023057513	8
0	6410	10298.804478549932	9
0	6412	10299.551972151063	10
0	6414	10302.725966014715	11
0	6416	10302.868709848886	10
0	6419	10304.794800531979	9
0	6422	10308.85748433119	10
0	6424	10309.877989164953	11
0	6426	10311.63820195163	10
0	6429	10312.002394519524	11
0	6431	10316.83008062283	10
0	6434	10322.51699253571	9
0	6437	10324.674740317059	8
0	6440	10329.69903380459	9
0	6442	10330.974309117892	8
0	6445	10333.058713376791	9
0	6447	10337.674046241804	8
0	6450	10340.261903905395	9
0	6452	10345.401079291892	10
0	6454	10354.494142906491	11
0	6456	10358.003476345734	12
0	6458	10370.457148438994	13
0	6460	10371.585614082077	12
0	6463	10378.828864031505	13
0	6465	10384.349155393868	14
0	6467	10384.807396230738	13
0	6470	10389.574140562264	14
0	6472	10390.301597308827	15
0	6474	10396.834485915732	14
0	6477	10397.321994559635	15
0	6479	10400.510858778624	14
0	6482	10403.484061427451	15
0	6484	10414.163473251291	16
0	6486	10419.523681744803	15
0	6489	10420.565517517947	14
0	6492	10421.234857638307	15
0	6494	10421.427824102883	14
0	6497	10426.648932330231	13
0	6500	10427.7617572619	14
0	6502	10428.105369052092	13
0	6505	10433.096145895443	12
0	6508	10438.707490366251	13
0	6510	10445.772958036791	14
0	6512	10447.249265301996	13
0	6515	10448.102358744131	12
0	6518	10449.525885358828	11
0	6521	10450.293235225095	12
0	6523	10450.574627696963	11
0	6526	10453.589189505181	10
0	6529	10456.942557591433	11
0	6531	10458.03443493782	12
0	6533	10460.41896889145	11
0	6536	10461.842899915792	12
0	6538	10464.512997350608	13
0	6540	10466.085493673949	12
0	6543	10467.806233117848	13
0	6545	10470.219132389193	12
0	6548	10471.337162116238	11
0	6551	10471.415151652076	12
0	6553	10472.507766624304	11
0	6556	10483.639715911847	10
0	6559	10484.110476199056	9
0	6562	10489.807673751559	10
0	6564	10491.297278319669	9
0	6567	10494.065648511806	8
0	6570	10496.954568899141	7
0	6573	10498.113470673773	8
0	6575	10505.596346297414	9
0	6577	10511.654985460303	8
0	6580	10512.05118503289	7
0	6583	10512.056420015784	6
0	6585	10512.362600037432	7
0	6588	10514.604049263857	8
0	6590	10518.125703361483	9
0	6592	10523.642892965395	10
0	6594	10528.607777772483	9
0	6597	10528.795381610917	8
0	6600	10536.17395975775	7
0	6603	10540.916433556232	6
0	6605	10540.990039846575	5
0	6607	10548.492710991038	4
0	6609	10553.904241627326	3
0	6611	10558.09245934012	4
0	6614	10561.300441885884	5
0	6617	10561.762462861467	4
0	6619	10568.747105831352	5
0	6622	10577.406564987748	4
0	6624	10590.454642832459	5
0	6627	10591.601656903959	4
0	6629	10592.620999061925	5
0	6632	10592.68150221195	6
0	6635	10593.540246277544	7
0	6638	10595.582820379933	8
0	6640	10596.559030698011	7
0	6643	10596.909926705939	8
0	6645	10597.459606156756	7
0	6648	10600.547465567695	8
0	6650	10601.962082141877	7
0	6653	10602.805920378641	8
0	6655	10603.031872489365	7
0	6658	10603.313948638399	6
0	6660	10608.15839433553	7
0	6663	10609.559713281401	8
0	6665	10617.047646005271	7
0	6668	10619.729375559641	6
0	6670	10624.780393647954	7
0	6673	10626.432327628049	8
0	6675	10627.168264290981	9
0	6677	10629.853111085074	10
0	6679	10632.645392246452	9
0	6682	10637.675591053171	8
0	6685	10640.13366321939	7
0	6688	10642.966718527986	8
0	6690	10643.78039028733	7
0	6693	10644.489938060875	8
0	6695	10644.948034960278	9
0	6697	10646.911969638763	8
0	6700	10655.72115404544	7
0	6703	10661.459344006469	6
0	6705	10663.11404646574	7
0	6708	10663.122097717726	6
0	6710	10665.032119494946	5
0	6712	10669.968109483936	4
0	6714	10677.89124484161	5
0	6717	10678.560330583553	6
0	6720	10678.984461223514	7
0	6723	10684.931760092641	8
0	6725	10685.079047542379	9
0	6727	10689.30549194595	10
0	6729	10697.312630659833	9
0	6732	10698.856654134519	10
0	6734	10718.600354943778	9
0	6737	10719.802541831824	8
0	6740	10731.165788406523	9
0	6742	10741.386564676406	8
0	6745	10756.084987681335	7
0	6748	10761.109746874634	6
0	6750	10764.613879522093	5
0	6752	10775.416622523219	4
0	6754	10778.351153890713	5
0	6757	10779.301772659037	6
0	6760	10784.078888308162	5
0	6762	10797.455769134965	6
0	6765	10799.236114093491	5
0	6767	10801.513833030981	6
0	6770	10803.867422499806	5
0	6772	10804.330976376064	4
0	6774	10808.377977715497	5
0	6777	10828.268793471975	4
0	6779	10829.282254237688	3
0	6781	10833.973765763689	2
0	6783	10836.290454884728	3
0	6786	10856.239994401863	4
0	6789	10872.289946936808	5
0	6792	10872.332459724107	6
0	6795	10874.357167545383	5
0	6797	10885.921763729596	6
0	6800	10886.368654990492	5
0	6802	10896.070956889751	4
0	6804	10897.941284627132	3
0	6806	10915.454321378567	4
0	6809	10917.840522047578	5
0	6812	10923.239032747589	6
0	6815	10924.738229009583	7
0	6818	10925.910448566523	6
0	6820	10935.005130824805	7
0	6823	10943.841607567785	8
0	6825	10957.598374595643	9
0	6827	10958.336262612375	8
0	6830	10966.246693017925	7
0	6833	10978.801455381944	8
0	6835	10983.025625110591	7
0	6838	10986.525595853308	6
0	6840	10988.941223686148	7
0	6843	10989.79979775216	6
0	6845	10991.968997568772	5
0	6847	10995.45042704827	6
0	6850	10998.519869989881	5
0	6852	11001.576801976333	6
0	6855	11008.358622432122	7
0	6858	11009.152486968996	6
0	6860	11013.538194614422	7
0	6863	11016.165994838053	8
0	6865	11023.762864567475	7
0	6868	11028.02487313653	6
0	6870	11028.362093616306	5
0	6872	11028.657378953062	4
0	6874	11030.756086423771	5
0	6877	11041.724499120651	4
0	6879	11042.495876526926	5
0	6882	11044.331962354462	6
0	6885	11045.988586152115	7
0	6888	11049.898384826458	6
0	6890	11057.195735250898	5
0	6892	11073.523258777275	6
0	6895	11076.651961277408	7
0	6898	11086.581274579383	8
0	6900	11087.340463623252	7
0	6903	11090.904889557325	6
0	6905	11091.014431017598	7
0	6908	11092.794650226789	8
0	6910	11098.462529838823	9
0	6912	11105.477050758046	8
0	6915	11109.124473248849	9
0	6917	11110.111656178329	8
0	6920	11111.345373915058	9
0	6922	11117.382832071938	10
0	6924	11118.358698230928	11
0	6926	11121.315105536907	10
0	6929	11128.185644409402	11
0	6931	11129.170191608647	10
0	6934	11135.731241670899	11
0	6936	11139.375293918755	10
0	6939	11144.004258864015	9
0	6942	11146.272065131176	8
0	6945	11147.411785172034	9
0	6947	11150.136292193383	10
0	6949	11150.866990403885	11
0	6951	11157.83061489598	12
0	6953	11162.450768102135	11
0	6956	11163.47405676203	12
0	6958	11164.815374740529	13
0	6960	11181.303228461567	12
0	6963	11181.355171954195	11
0	6966	11186.323043233391	12
0	6968	11186.90919757341	11
0	6971	11188.369667446306	10
0	6974	11189.768746197539	9
0	6977	11190.011365440522	8
0	6980	11190.0966605509	7
0	6983	11191.572014231555	8
0	6985	11194.362831406545	7
0	6988	11194.664872835916	8
0	6990	11199.06740216684	7
0	6993	11200.749250785066	8
0	6995	11207.958164576847	9
0	6997	11208.383881765293	10
0	6999	11208.655365048312	9
0	7002	11212.070399724639	10
0	7004	11215.353468542599	11
0	7006	11220.198486329019	12
0	7008	11221.353280925264	13
0	7010	11225.248494105093	12
0	7013	11227.716547508479	13
0	7015	11228.240325587478	14
0	7017	11229.530473233428	13
0	7020	11230.44684616473	12
0	7023	11233.81921911645	11
0	7026	11234.609245180605	12
0	7028	11234.82360458675	11
0	7031	11243.191259054307	10
0	7034	11243.863954520278	9
0	7037	11271.418856514917	10
0	7039	11273.221328269654	11
0	7041	11276.33436842258	12
0	7043	11285.564955501941	13
0	7045	11285.885883895605	12
0	7048	11287.142084589606	11
0	7051	11292.055274598232	10
0	7054	11295.091747832093	9
0	7057	11298.1741523761	8
0	7060	11298.84552039435	9
0	7062	11299.581285892494	10
0	7064	11301.93239655574	11
0	7066	11302.233507993642	10
0	7069	11303.128054814216	11
0	7071	11305.211524512864	10
0	7074	11310.355140611485	9
0	7077	11310.49840608366	8
0	7080	11312.281185645264	9
0	7082	11312.302902259221	10
0	7084	11312.537812963325	9
0	7087	11316.528310776615	8
0	7090	11323.727432137132	9
0	7092	11324.720119548882	10
0	7094	11325.78078299912	9
0	7097	11327.588345373039	8
0	7100	11327.799604477382	7
0	7103	11331.963692278552	8
0	7105	11337.090653492264	9
0	7107	11342.193506657333	10
0	7109	11349.646810494514	11
0	7111	11353.892872991735	12
0	7113	11366.543154470292	13
0	7115	11368.447370053394	12
0	7118	11369.975500957115	13
0	7120	11370.878156708192	14
0	7122	11381.27443507291	13
0	7125	11382.153916894626	12
0	7128	11383.863545063284	11
0	7131	11391.083574466324	10
0	7134	11392.098604797311	11
0	7136	11402.080717042786	10
0	7139	11403.387904790427	9
0	7142	11404.039033699324	8
0	7145	11407.314456647131	9
0	7147	11409.117663689271	8
0	7150	11410.473112638206	7
0	7153	11413.387636111105	6
0	7155	11418.265619442665	5
0	7157	11421.519313272666	6
0	7160	11432.481879035228	7
0	7163	11433.737359682045	6
0	7165	11445.032183158196	5
0	7167	11445.398306724557	4
0	7169	11446.776457131108	3
0	7171	11454.362857602957	2
0	7173	11459.307290040169	3
0	7176	11462.880961168976	2
0	7178	11463.508286260312	3
0	7181	11464.337148661054	2
0	7183	11464.570114559152	3
0	7186	11464.991385617436	2
0	7188	11481.345041802806	1
0	7190	11486.187224184394	2
0	7193	11495.070805520993	1
0	7195	11496.687635031799	2
0	7198	11534.309433271827	3
0	7201	11541.750418362985	2
0	7203	11542.277545119462	1
0	7205	11556.428540788368	0
0	7207	11556.598451437415	1
0	7210	11558.433774955185	2
0	7213	11560.033421430209	3
0	7216	11563.847760282147	4
0	7219	11564.398242766763	5
0	7222	11564.987151213737	4
0	7224	11585.276498126005	5
0	7227	11587.129501700904	4
0	7229	11587.990145833801	3
0	7231	11594.70371626222	2
0	7233	11596.087643235738	3
0	7236	11606.317115008597	4
0	7239	11610.170011341128	3
0	7241	11613.152532247372	4
0	7244	11613.546849567985	5
0	7247	11623.440817611304	4
0	7249	11628.299466769114	5
0	7252	11630.767048745299	4
0	7254	11631.968173047918	3
0	7256	11633.78283494992	2
0	7258	11640.467751327142	3
0	7261	11641.672217256245	4
0	7264	11644.911305768452	3
0	7266	11645.131881997894	2
0	7268	11655.32636129424	1
0	7270	11655.751554545103	2
0	7273	11659.43491739878	1
0	7275	11668.439955287645	2
0	7278	11668.703219569193	1
0	7280	11669.388325313805	0
0	7282	11679.546387895823	1
0	7285	11681.347826050997	2
0	7288	11694.204836181246	3
0	7291	11695.634557778751	4
0	7294	11700.237125607945	3
0	7296	11705.224387159926	2
0	7298	11709.584379705118	3
0	7301	11711.019936988878	4
0	7304	11712.329604403951	3
0	7306	11712.67027744679	4
0	7309	11716.20212894785	3
0	7311	11717.075525624405	2
0	7313	11726.15110367172	3
0	7316	11728.30137644333	4
0	7319	11737.055085587279	5
0	7322	11743.553657203907	4
0	7324	11745.090785577031	5
0	7327	11751.013793211976	6
0	7330	11755.556651716941	5
0	7332	11763.029881016396	4
0	7334	11765.831505306542	3
0	7336	11770.089894813339	4
0	7339	11773.645586006084	5
0	7342	11776.68626442448	6
0	7345	11785.422858423134	5
0	7347	11785.64487328544	4
0	7349	11792.140318712849	3
0	7351	11793.463885659299	4
0	7354	11800.563698167448	5
0	7357	11804.550200171602	6
0	7360	11813.740575513353	7
0	7363	11827.309236740349	8
0	7365	11832.120326341841	9
0	7367	11833.602027792574	8
0	7370	11836.746525334823	9
0	7372	11838.172884077158	8
0	7375	11843.414290873151	7
0	7378	11846.75455018147	8
0	7380	11849.945590308782	7
0	7383	11850.539506660809	8
0	7385	11855.815082286619	7
0	7388	11856.986217995019	6
0	7390	11858.653680998921	5
0	7392	11859.426398813781	4
0	7394	11864.317202218604	3
0	7396	11868.933627467999	4
0	7399	11873.902915940362	5
0	7402	11874.374297951681	4
0	7404	11881.730405922355	5
0	7407	11884.599568093078	6
0	7410	11889.043076166785	5
0	7412	11890.807991599204	6
0	7415	11901.822210161446	7
0	7418	11906.442845030915	8
0	7420	11912.031667539701	9
0	7422	11918.479757158972	8
0	7425	11918.923934209471	9
0	7427	11921.037874488084	10
0	7429	11922.297604068788	9
0	7432	11923.605518969479	8
0	7435	11924.550410938642	9
0	7437	11924.592103486416	8
0	7440	11941.542632864083	7
0	7443	11942.937129502694	8
0	7445	11946.910961245173	9
0	7447	11947.628625269175	8
0	7450	11950.7856151991	9
0	7452	11951.408131231641	8
0	7455	11956.857475124622	9
0	7457	11963.131734226394	10
0	7459	11963.68326958262	11
0	7461	11971.827796186925	10
0	7464	11974.89384081424	9
0	7467	11979.208731865752	8
0	7470	11982.405814014108	7
0	7473	11982.639234445749	8
0	7475	11984.72003312175	9
0	7477	11988.151658782576	8
0	7480	11992.550427555726	9
0	7482	11994.745001569453	8
0	7485	11998.342770372842	7
0	7488	11998.812365215837	8
0	7490	11999.806882151539	9
0	7492	11999.939020580013	8
0	7495	12004.325309839098	9
0	7497	12022.375843096354	8
0	7500	12026.810243135643	9
0	7502	12028.468281114019	8
0	7505	12030.047755790415	9
0	7507	12037.95237113495	10
0	7509	12039.800725345857	9
0	7512	12040.605492716961	8
0	7515	12048.443325033931	9
0	7517	12050.534853178	8
0	7520	12050.84689556937	7
0	7523	12051.705935515776	8
0	7525	12056.413710576712	7
0	7528	12061.171917551185	8
0	7530	12062.371732171656	9
0	7532	12063.276846885883	8
0	7535	12063.830919931281	9
0	7537	12067.449883740331	8
0	7540	12074.047718083216	7
0	7543	12076.47093096907	8
0	7545	12086.094560087809	7
0	7548	12090.812354433968	6
0	7550	12092.728466462035	5
0	7552	12093.342164953128	6
0	7555	12094.395692717346	5
0	7557	12096.742383167423	4
0	7559	12101.08436907318	5
0	7562	12106.556657537495	6
0	7565	12109.660331458341	5
0	7567	12109.755001184235	4
0	7569	12112.655968383016	5
0	7572	12114.648324680084	4
0	7574	12120.453663017978	3
0	7576	12123.378157506198	2
0	7578	12123.477635444289	3
0	7581	12127.859736731679	2
0	7583	12141.424061871946	3
0	7586	12148.234658716243	4
0	7589	12160.666578570947	5
0	7592	12179.879014492127	4
0	7594	12199.160141412955	3
0	7596	12201.94534573857	2
0	7598	12209.239723901607	3
0	7601	12210.555654420731	4
0	7604	12221.723281241256	5
0	7607	12224.711781591198	6
0	7610	12230.065761997769	5
0	7612	12234.53190961474	6
0	7615	12236.817266511294	7
0	7618	12239.313825871913	6
0	7620	12248.878526717886	7
0	7623	12252.674872658469	6
0	7625	12259.777471339553	7
0	7628	12261.013205040423	8
0	7630	12261.286065402562	9
0	7632	12263.116789283338	10
0	7634	12269.866497726415	11
0	7636	12275.930873338836	10
0	7639	12279.882398029889	11
0	7641	12282.697896138876	10
0	7644	12283.458768021389	9
0	7647	12290.461199602583	8
0	7650	12291.381707703388	9
0	7652	12296.831163804165	10
0	7654	12304.76246824045	9
0	7657	12311.777162550323	8
0	7660	12313.58050258724	9
0	7662	12314.843910644584	8
0	7665	12324.82057913773	9
0	7667	12328.169975876767	10
0	7669	12328.211278967884	9
0	7672	12328.909761794825	8
0	7675	12329.038822346556	9
0	7677	12334.44255962879	8
0	7680	12338.93370171737	7
0	7683	12342.81328592809	8
0	7685	12348.964555247397	9
0	7687	12349.902506365629	10
0	7689	12353.711601560583	11
0	7691	12368.701553077269	12
0	7693	12373.586724007494	13
0	7695	12374.578411429278	12
0	7698	12374.67776105956	13
0	7700	12375.502336552863	12
0	7703	12375.570085629243	11
0	7706	12381.667524554984	10
0	7709	12382.087638606974	11
0	7711	12386.13815567806	12
0	7713	12388.8961496685	11
0	7716	12390.47199865869	10
0	7719	12391.232456625244	9
0	7722	12391.720030679916	10
0	7724	12398.337352125446	9
0	7727	12398.777611949573	8
0	7730	12400.749706604701	7
0	7733	12401.336817573863	6
0	7735	12401.620194137938	5
0	7737	12404.488073685075	6
0	7740	12410.69788067467	7
0	7743	12411.997254968696	8
0	7745	12413.80102619517	7
0	7748	12417.327077009681	8
0	7750	12417.674576666619	7
0	7753	12419.410221191446	8
0	7755	12423.61712850372	9
0	7757	12427.354986058758	8
0	7760	12428.412215093284	7
0	7763	12433.865473193002	8
0	7765	12434.065343522232	7
0	7768	12442.956694662362	6
0	7770	12445.688610342818	7
0	7773	12447.255298709744	6
0	7775	12455.873379722807	7
0	7778	12455.971604862296	8
0	7780	12458.894860881469	7
0	7783	12464.170358588512	8
0	7785	12467.640102703572	7
0	7788	12470.734101880044	6
0	7790	12471.469598920681	7
0	7793	12476.433422361817	6
0	7795	12478.384227913066	5
0	7797	12480.638343061389	4
0	7799	12480.941612592796	5
0	7802	12481.527899288327	4
0	7804	12485.171761834747	3
0	7806	12487.610240897536	4
0	7809	12493.869993625969	5
0	7812	12495.172145045066	4
0	7814	12495.1899838467	3
0	7816	12498.015941295523	2
0	7818	12503.945288013416	3
0	7821	12506.265957584665	4
0	7824	12509.769537366352	3
0	7826	12513.57689431988	4
0	7829	12516.970359806295	5
0	7832	12530.099740916745	4
0	7834	12530.996772068377	5
0	7837	12532.599982217419	6
0	7840	12534.323737446749	5
0	7842	12542.482102267898	4
0	7844	12546.994554234147	3
0	7846	12553.908881282182	2
0	7848	12558.168055301586	3
0	7851	12558.582115873868	2
0	7853	12561.844129501223	1
0	7855	12577.295064376282	2
0	7858	12580.649843612489	3
0	7861	12587.654716039409	4
0	7864	12589.718159113235	5
0	7867	12593.816124368689	6
0	7870	12594.994822779783	5
0	7872	12598.223708163727	6
0	7875	12603.182968230867	7
0	7878	12605.8995963705	8
0	7880	12608.886168540214	7
0	7883	12609.910916500198	6
0	7885	12614.295120484427	5
0	7887	12629.442186030509	6
0	7890	12637.077248186519	7
0	7893	12638.409004547552	8
0	7895	12643.717307713839	7
0	7898	12644.26060040417	6
0	7900	12646.000770693516	5
0	7902	12652.048050896353	4
0	7904	12654.776634865786	3
0	7906	12657.838946256604	4
0	7909	12660.824256138271	3
0	7911	12664.898503163452	4
0	7914	12666.096869033239	5
0	7917	12671.736824656746	6
0	7920	12672.586775034442	7
0	7923	12680.149529654246	8
0	7925	12680.228659658249	7
0	7928	12682.51541061691	8
0	7930	12682.661620042643	9
0	7932	12685.3842514408	8
0	7935	12693.021428602063	9
0	7937	12700.290767250034	8
0	7940	12701.652173675748	7
0	7943	12703.646245931673	6
0	7945	12703.855340506856	5
0	7947	12709.474976899284	6
0	7950	12716.66578445513	7
0	7953	12716.786065096014	6
0	7955	12723.638131660331	5
0	7957	12731.076828732227	4
0	7959	12738.185692960746	5
0	7962	12739.048269414657	6
0	7965	12740.19890021824	5
0	7967	12741.407625154074	4
0	7969	12743.406742489278	3
0	7971	12745.709993013126	4
0	7974	12751.793446036803	3
0	7976	12760.925735690676	2
0	7978	12765.791839930878	3
0	7981	12775.334805718264	4
0	7984	12775.587694519181	3
0	7986	12787.823212399248	4
0	7989	12797.192094976229	3
0	7991	12808.282967797087	4
0	7994	12808.469301874719	5
0	7997	12814.8722716032	4
0	7999	12818.296481413781	5
0	8002	12818.932904704761	4
0	8004	12819.447299690546	3
0	8006	12823.10819957879	2
0	8008	12826.726370277521	3
0	8011	12828.050454316051	4
0	8014	12829.829284418292	3
0	8016	12830.050455774224	2
0	8018	12839.851342384848	3
[...]
1	7239	11610.170011341128	0
1	7241	11613.152532247372	0
1	7244	11613.546849567985	0
1	7247	11623.440817611304	0
1	7249	11628.299466769114	0
1	7252	11630.767048745299	0
1	7254	11631.968173047918	0
1	7256	11633.78283494992	0
1	7258	11640.467751327142	0
1	7261	11641.672217256245	0
1	7264	11644.911305768452	0
1	7266	11645.131881997894	0
1	7268	11655.32636129424	0
1	7270	11655.751554545103	0
1	7273	11659.43491739878	0
1	7275	11668.439955287645	0
1	7278	11668.703219569193	0
1	7280	11669.388325313805	0
1	7282	11679.546387895823	0
1	7285	11681.347826050997	0
1	7288	11694.204836181246	0
1	7291	11695.634557778751	0
1	7294	11700.237125607945	0
1	7296	11705.224387159926	0
1	7298	11709.584379705118	0
1	7301	11711.019936988878	0
1	7304	11712.329604403951	0
1	7306	11712.67027744679	0
1	7309	11716.20212894785	0
1	7311	11717.075525624405	0
1	7313	11726.15110367172	0
1	7316	11728.30137644333	0
1	7319	11737.055085587279	0
1	7322	11743.553657203907	0
1	7324	11745.090785577031	0
1	7327	11751.013793211976	0
1	7330	11755.556651716941	0
1	7332	11763.029881016396	0
1	7334	11765.831505306542	0
1	7336	11770.089894813339	0
1	7339	11773.645586006084	0
1	7342	11776.68626442448	0
1	7345	11785.422858423134	0
1	7347	11785.64487328544	0
1	7349	11792.140318712849	0
1	7351	11793.463885659299	0
1	7354	11800.563698167448	0
1	7357	11804.550200171602	0
1	7360	11813.740575513353	0
1	7363	11827.309236740349	1
1	7365	11832.120326341841	2
1	7367	11833.602027792574	1
1	7370	11836.746525334823	2
1	7372	11838.172884077158	1
1	7375	11843.414290873151	0
1	7378	11846.75455018147	1
1	7380	11849.945590308782	0
1	7383	11850.539506660809	1
1	7385	11855.815082286619	0
1	7388	11856.986217995019	0
1	7390	11858.653680998921	0
1	7392	11859.426398813781	0
1	7394	11864.317202218604	0
1	7396	11868.933627467999	0
1	7399	11873.902915940362	0
1	7402	11874.374297951681	0
1	7404	11881.730405922355	0
1	7407	11884.599568093078	0
1	7410	11889.043076166785	0
1	7412	11890.807991599204	0
1	7415	11901.822210161446	0
1	7418	11906.442845030915	1
1	7420	11912.031667539701	2
1	7422	11918.479757158972	1
1	7425	11918.923934209471	2
1	7427	11921.037874488084	3
1	7429	11922.297604068788	2
1	7432	11923.605518969479	1
1	7435	11924.550410938642	2
1	7437	11924.592103486416	1
1	7440	11941.542632864083	0
1	7443	11942.937129502694	1
1	7445	11946.910961245173	2
1	7447	11947.628625269175	1
1	7450	11950.7856151991	2
1	7452	11951.408131231641	1
1	7455	11956.857475124622	2
1	7457	11963.131734226394	3
1	7459	11963.68326958262	4
1	7461	11971.827796186925	3
1	7464	11974.89384081424	2
1	7467	11979.208731865752	1
1	7470	11982.405814014108	0
1	7473	11982.639234445749	1
1	7475	11984.72003312175	2
1	7477	11988.151658782576	1
1	7480	11992.550427555726	2
1	7482	11994.745001569453	1
1	7485	11998.342770372842	0
1	7488	11998.812365215837	1
1	7490	11999.806882151539	2
1	7492	11999.939020580013	1
1	7495	12004.325309839098	2
1	7497	12022.375843096354	1
1	7500	12026.810243135643	2
1	7502	12028.468281114019	1
1	7505	12030.047755790415	2
1	7507	12037.95237113495	3
1	7509	12039.800725345857	2
1	7512	12040.605492716961	1
1	7515	12048.443325033931	2
1	7517	12050.534853178	1
1	7520	12050.84689556937	0
1	7523	12051.705935515776	1
1	7525	12056.413710576712	0
1	7528	12061.171917551185	1
1	7530	12062.371732171656	2
1	7532	12063.276846885883	1
1	7535	12063.830919931281	2
1	7537	12067.449883740331	1
1	7540	12074.047718083216	0
1	7543	12076.47093096907	1
1	7545	12086.094560087809	0
1	7548	12090.812354433968	0
1	7550	12092.728466462035	0
1	7552	12093.342164953128	0
1	7555	12094.395692717346	0
1	7557	12096.742383167423	0
1	7559	12101.08436907318	0
1	7562	12106.556657537495	0
1	7565	12109.660331458341	0
1	7567	12109.755001184235	0
1	7569	12112.655968383016	0
1	7572	12114.648324680084	0
1	7574	12120.453663017978	0
1	7576	12123.378157506198	0
1	7578	12123.477635444289	0
1	7581	12127.859736731679	0
1	7583	12141.424061871946	0
1	7586	12148.234658716243	0
1	7589	12160.666578570947	0
1	7592	12179.879014492127	0
1	7594	12199.160141412955	0
1	7596	12201.94534573857	0
1	7598	12209.239723901607	0
1	7601	12210.555654420731	0
1	7604	12221.723281241256	0
1	7607	12224.711781591198	0
1	7610	12230.065761997769	0
1	7612	12234.53190961474	0
1	7615	12236.817266511294	0
1	7618	12239.313825871913	0
1	7620	12248.878526717886	0
1	7623	12252.674872658469	0
1	7625	12259.777471339553	0
1	7628	12261.013205040423	1
1	7630	12261.286065402562	2
1	7632	12263.116789283338	3
1	7634	12269.866497726415	4
1	7636	12275.930873338836	3
1	7639	12279.882398029889	4
1	7641	12282.697896138876	3
1	7644	12283.458768021389	2
1	7647	12290.461199602583	1
1	7650	12291.381707703388	2
1	7652	12296.831163804165	3
1	7654	12304.76246824045	2
1	7657	12311.777162550323	1
1	7660	12313.58050258724	2
1	7662	12314.843910644584	1
1	7665	12324.82057913773	2
1	7667	12328.169975876767	3
1	7669	12328.211278967884	2
1	7672	12328.909761794825	1
1	7675	12329.038822346556	2
1	7677	12334.44255962879	1
1	7680	12338.93370171737	0
1	7683	12342.81328592809	1
1	7685	12348.964555247397	2
1	7687	12349.902506365629	3
1	7689	12353.711601560583	4
1	7691	12368.701553077269	5
1	7693	12373.586724007494	6
1	7695	12374.578411429278	5
1	7698	12374.67776105956	6
1	7700	12375.502336552863	5
1	7703	12375.570085629243	4
1	7706	12381.667524554984	3
1	7709	12382.087638606974	4
1	7711	12386.13815567806	5
1	7713	12388.8961496685	4
1	7716	12390.47199865869	3
1	7719	12391.232456625244	2
1	7722	12391.720030679916	3
1	7724	12398.337352125446	2
1	7727	12398.777611949573	1
1	7730	12400.749706604701	0
1	7733	12401.336817573863	0
1	7735	12401.620194137938	0
1	7737	12404.488073685075	0
1	7740	12410.69788067467	0
1	7743	12411.997254968696	1
1	7745	12413.80102619517	0
1	7748	12417.327077009681	1
1	7750	12417.674576666619	0
1	7753	12419.410221191446	1
1	7755	12423.61712850372	2
1	7757	12427.354986058758	1
1	7760	12428.412215093284	0
1	7763	12433.865473193002	1
1	7765	12434.065343522232	0
1	7768	12442.956694662362	0
1	7770	12445.688610342818	0
1	7773	12447.255298709744	0
1	7775	12455.873379722807	0
1	7778	12455.971604862296	1
1	7780	12458.894860881469	0
1	7783	12464.170358588512	1
1	7785	12467.640102703572	0
1	7788	12470.734101880044	0
1	7790	12471.469598920681	0
1	7793	12476.433422361817	0
1	7795	12478.384227913066	0
1	7797	12480.638343061389	0
1	7799	12480.941612592796	0
1	7802	12481.527899288327	0
1	7804	12485.171761834747	0
1	7806	12487.610240897536	0
1	7809	12493.869993625969	0
1	7812	12495.172145045066	0
1	7814	12495.1899838467	0
1	7816	12498.015941295523	0
1	7818	12503.945288013416	0
1	7821	12506.265957584665	0
1	7824	12509.769537366352	0
1	7826	12513.57689431988	0
1	7829	12516.970359806295	0
1	7832	12530.099740916745	0
1	7834	12530.996772068377	0
1	7837	12532.599982217419	0
1	7840	12534.323737446749	0
1	7842	12542.482102267898	0
1	7844	12546.994554234147	0
1	7846	12553.908881282182	0
1	7848	12558.168055301586	0
1	7851	12558.582115873868	0
1	7853	12561.844129501223	0
1	7855	12577.295064376282	0
1	7858	12580.649843612489	0
1	7861	12587.654716039409	0
1	7864	12589.718159113235	0
1	7867	12593.816124368689	0
1	7870	12594.994822779783	0
1	7872	12598.223708163727	0
1	7875	12603.182968230867	0
1	7878	12605.8995963705	1
1	7880	12608.886168540214	0
1	7883	12609.910916500198	0
1	7885	12614.295120484427	0
1	7887	12629.442186030509	0
1	7890	12637.077248186519	0
1	7893	12638.409004547552	1
1	7895	12643.717307713839	0
1	7898	12644.26060040417	0
1	7900	12646.000770693516	0
1	7902	12652.048050896353	0
1	7904	12654.776634865786	0
1	7906	12657.838946256604	0
1	7909	12660.824256138271	0
1	7911	12664.898503163452	0
1	7914	12666.096869033239	0
1	7917	12671.736824656746	0
1	7920	12672.586775034442	0
1	7923	12680.149529654246	1
1	7925	12680.228659658249	0
1	7928	12682.51541061691	1
1	7930	12682.661620042643	2
1	7932	12685.3842514408	1
1	7935	12693.021428602063	2
1	7937	12700.290767250034	1
1	7940	12701.652173675748	0
1	7943	12703.646245931673	0
1	7945	12703.855340506856	0
1	7947	12709.474976899284	0
1	7950	12716.66578445513	0
1	7953	12716.786065096014	0
1	7955	12723.638131660331	0
1	7957	12731.076828732227	0
1	7959	12738.185692960746	0
1	7962	12739.048269414657	0
1	7965	12740.19890021824	0
1	7967	12741.407625154074	0
1	7969	12743.406742489278	0
1	7971	12745.709993013126	0
1	7974	12751.793446036803	0
1	7976	12760.925735690676	0
1	7978	12765.791839930878	0
1	7981	12775.334805718264	0
1	7984	12775.587694519181	0
1	7986	12787.823212399248	0
1	7989	12797.192094976229	0
1	7991	12808.282967797087	0
1	7994	12808.469301874719	0
1	7997	12814.8722716032	0
1	7999	12818.296481413781	0
1	8002	12818.932904704761	0
1	8004	12819.447299690546	0
1	8006	12823.10819957879	0
1	8008	12826.726370277521	0
1	8011	12828.050454316051	0
1	8014	12829.829284418292	0
1	8016	12830.050455774224	0
1	8018	12839.851342384848	0
1	8021	12846.720959649688	0
1	8024	12850.473764710215	0
1	8027	12857.939531674445	0
1	8030	12858.510825500124	0
1	8033	12862.925821591428	1
1	8035	12863.569613219606	2
1	8037	12864.797462081881	1
1	8040	12865.742547602736	0
1	8043	12870.875726316908	0
1	8045	12874.237535824983	0
1	8048	12875.11826007588	1
1	8050	12880.321831429267	0
1	8053	12884.543503724956	0
1	8055	12885.274563399778	0
1	8057	12896.907674597392	0
1	8060	12899.854132944544	0
1	8062	12911.590337908889	0
1	8065	12932.37334740957	0
1	8068	12935.67635188353	0
1	8070	12938.831680093567	0
1	8072	12942.863970601241	0
1	8074	12942.888836641397	0
1	8076	12949.086755686462	0
1	8078	12951.698141303126	0
1	8081	12956.493055734845	0
1	8084	12957.541316156909	0
1	8087	12958.502745804773	0
1	8090	12960.655261785785	0
1	8093	12962.9011128186	0
1	8095	12994.168655505431	0
1	8098	12995.616232415024	1
1	8100	12997.267284972541	0
1	8103	13007.566345173938	0
1	8105	13010.221977382941	0
1	8108	13011.107694489175	0
1	8110	13011.757304820239	0
1	8112	13011.871490913076	0
1	8115	13011.922735211955	0
1	8117	13012.936658578471	0
1	8120	13020.832713344195	0
1	8122	13023.667894104342	0
1	8124	13024.45873481111	0
1	8126	13027.472823258944	0
1	8129	13032.155217514054	0
1	8131	13039.184003066544	0
1	8133	13047.763287101286	0
1	8136	13050.992777504371	0
1	8139	13051.060385872789	0
1	8141	13060.252002714722	0
1	8143	13062.684932621091	0
1	8145	13067.308169241002	0
1	8148	13070.293441343779	0
1	8151	13071.141687293091	0
1	8153	13073.255017986345	0
1	8155	13076.145852488524	0
1	8158	13078.209757772162	0
1	8161	13085.367468010045	0
1	8164	13092.857260591003	0
1	8167	13096.930579362642	0
1	8170	13100.288014612903	0
1	8172	13100.745912088867	0
1	8175	13101.196457251647	0
1	8178	13101.375783475308	0
1	8180	13109.99616743605	0
1	8182	13112.104885421866	0
1	8185	13115.371004516255	0
1	8188	13115.581420086326	0
1	8190	13117.212146470092	0
1	8193	13130.202609699956	1
1	8195	13142.604037142489	2
1	8197	13142.641179416294	3
1	8199	13144.961666410218	2
1	8202	13148.875712694665	1
1	8205	13150.046284380898	2
1	8207	13150.710017487984	1
1	8210	13152.250937482976	0
1	8213	13153.291995565758	1
1	8215	13154.262716078855	2
1	8217	13158.164049459872	1
1	8220	13158.324940889489	2
1	8222	13159.453929326279	1
1	8225	13159.606095049003	0
1	8228	13162.607316299455	1
1	8230	13165.597927019774	0
1	8233	13168.77438047782	1
1	8235	13171.66333957866	0
1	8238	13172.962833835189	0
1	8240	13184.706888988906	0
1	8243	13186.656215793154	0
1	8245	13190.658642633067	0
1	8247	13193.397654646645	0
1	8249	13193.469804223094	0
1	8251	13204.898292344121	0
1	8254	13217.837656514719	0
1	8256	13225.405760359476	0
1	8259	13228.807177206986	0
1	8262	13233.214829309911	0
1	8264	13233.821561420808	0
1	8267	13237.230413313077	0
1	8270	13242.474712020964	0
1	8273	13252.133748966311	0
1	8275	13253.174783432834	0
1	8278	13253.472922983769	0
1	8280	13267.005160435103	0
1	8282	13270.423867501986	0
1	8284	13273.227558822286	0
1	8287	13278.042581000751	0
1	8290	13280.074103674761	0
1	8292	13285.11836423841	0
1	8295	13287.153424049529	0
1	8298	13287.420609942004	1
1	8300	13291.573979614915	0
1	8303	13292.238868684675	1
1	8305	13301.45379707885	0
1	8308	13302.106001238565	0
1	8310	13306.524542468527	0
1	8312	13311.750641637947	0
1	8315	13312.965201035201	0
1	8318	13315.247762041775	1
1	8320	13315.681275976925	0
1	8323	13315.852345614439	0
1	8325	13316.800198077652	0
1	8328	13321.287943648159	0
1	8330	13323.695223699903	0
1	8333	13324.439900412483	0
1	8335	13324.492037228304	0
1	8337	13329.214328044938	0
1	8340	13330.661836014058	0
1	8343	13335.004845756658	1
1	8345	13335.280576616221	2
1	8347	13344.615076449456	1
1	8350	13345.960466538507	0
1	8353	13348.278919175742	0
1	8355	13351.232925476886	0
1	8357	13354.986918783322	0
1	8360	13357.972526707512	0
1	8363	13361.572803345609	1
1	8365	13373.70387135403	2
1	8367	13378.712770803981	1
1	8370	13378.922679279978	0
1	8373	13380.655090518096	1
1	8375	13381.312471840963	0
1	8378	13382.697719245397	0
1	8380	13383.256358655179	0
1	8383	13389.271464164064	0
1	8385	13391.259484906016	0
1	8388	13393.248172968748	1
1	8390	13393.353620565467	2
1	8392	13395.266592571887	3
1	8394	13400.330121829136	2
1	8397	13403.980738167631	3
1	8399	13404.628433866959	2
1	8402	13405.671083451603	1
1	8405	13409.772454689101	2
1	8407	13411.34092375355	3
1	8409	13414.740249143791	2
1	8412	13416.564940037514	1
1	8415	13418.931567840268	0
1	8418	13431.264621860121	0
1	8420	13433.290330723417	0
1	8422	13435.549336207111	0
1	8424	13441.02708214455	0
1	8427	13441.057141872984	0
1	8429	13450.639917524455	0
1	8431	13459.244059176459	0
1	8433	13466.99506852906	0
1	8436	13471.909593704032	0
1	8439	13473.197168934501	0
1	8442	13479.716169493987	0
1	8445	13484.000178389469	0
1	8448	13487.345722572195	0
1	8450	13499.765278558549	0
1	8453	13500.478986079869	1
1	8455	13504.599594050792	0
1	8458	13505.850878370002	0
1	8460	13506.60592861487	0
1	8463	13507.228303572393	0
1	8465	13508.746510305655	0
1	8467	13521.739377669369	0
1	8469	13522.975464239018	0
1	8471	13527.07319707594	0
1	8473	13552.750594703885	0
1	8476	13554.381861317952	0
1	8479	13559.962236267213	0
1	8482	13562.811018965216	0
1	8485	13564.404740748031	0
1	8487	13569.933289542486	0
1	8489	13570.04957351227	0
1	8492	13573.017351785062	0
1	8495	13573.572808190262	0
1	8498	13575.196156040101	0
1	8500	13577.623734414654	0
1	8503	13579.312635572582	0
1	8505	13588.712824518531	0
1	8508	13589.658577373906	0
1	8510	13591.118863325393	0
1	8512	13593.164834375653	0
1	8515	13595.049657082615	0
1	8518	13597.953825489371	0
1	8520	13605.29090390013	0
1	8522	13606.092559312046	0
1	8524	13607.916445959668	0
1	8527	13623.889001945074	0
1	8529	13626.182964938762	0
1	8532	13627.260858765668	0
1	8534	13628.674079723154	0
1	8536	13628.737961552403	0
1	8538	13629.62168726	0
1	8541	13631.458397922819	0
1	8544	13636.510779221919	0
1	8547	13638.203342678803	0
1	8550	13643.638879790101	0
1	8552	13646.049464516712	0
1	8555	13646.347339251405	0
1	8558	13650.142336764459	1
1	8560	13650.429576520154	0
1	8563	13655.25262311869	1
1	8565	13655.800174259836	0
1	8568	13662.479389153898	0
1	8570	13669.74333331413	0
1	8573	13669.969149299908	0
1	8575	13676.399686093037	0
1	8578	13683.482939004398	1
1	8580	13684.026674540964	2
1	8582	13686.812301103541	3
1	8584	13696.55687611752	2
1	8587	13696.604015860889	1
1	8590	13698.288376682485	0
1	8593	13698.764321770595	1
1	8595	13703.518095278019	0
1	8598	13708.780085648242	1
1	8600	13713.610762840763	2
1	8602	13719.611004740242	3
1	8604	13725.55626591392	4
1	8606	13731.672653390553	5
1	8608	13732.026750198598	4
1	8611	13734.784837507174	3
1	8614	13735.874665902137	2
1	8617	13736.322105203507	3
1	8619	13738.907577326829	2
1	8622	13741.570272155466	3
1	8624	13745.667057769071	4
1	8626	13746.021324831051	3
1	8629	13749.511688476717	2
1	8632	13751.164568724356	3
1	8634	13754.958822289288	2
1	8637	13755.597606172479	1
1	8640	13757.725876299014	2
1	8642	13758.449168822784	1
1	8645	13760.998247882159	0
1	8648	13766.279513694241	0
1	8650	13769.323372441734	0
1	8653	13770.672996554704	1
1	8655	13771.542426707175	2
1	8657	13773.148867372482	3
1	8659	13776.404951463747	4
1	8661	13782.433508256417	3
1	8664	13784.178210290909	2
1	8667	13785.607670808656	1
1	8670	13792.236546434897	2
1	8672	13792.864593351608	3
1	8674	13797.941753594915	2
1	8677	13803.727074545553	1
1	8680	13810.622632234524	0
1	8683	13816.231886399923	1
1	8685	13816.260772360054	0
1	8688	13821.535833963887	0
1	8690	13827.426800602174	0
1	8693	13831.165218168214	1
1	8695	13833.708169788077	2
1	8697	13836.234020663256	3
1	8699	13842.27701950498	2
1	8702	13849.380696613522	1
1	8705	13852.406408450928	0
1	8708	13854.451730873297	1
1	8710	13857.784521871545	0
1	8713	13861.220845169392	0
1	8715	13861.684677875792	0
1	8717	13862.673670179589	0
1	8719	13862.714316973906	0
1	8722	13867.572150642099	0
1	8724	13868.69646969734	0
1	8727	13872.900386242533	0
1	8730	13885.805936750477	0
1	8733	13886.010251942299	0
1	8735	13886.011649922515	0
1	8738	13895.06727674946	0
1	8740	13897.638728189757	0
1	8742	13900.383866004752	0
1	8744	13915.392299155301	0
1	8746	13916.891436938009	0
1	8749	13918.249705764685	0
1	8752	13925.394761050101	0
1	8754	13930.964989851971	0
1	8756	13932.899807501097	0
1	8759	13942.969273509464	0
1	8762	13954.202575741556	0
1	8764	13959.108147175438	0
1	8767	13966.78972105038	0
1	8769	13967.713345515591	0
1	8772	13971.907125168319	0
1	8775	13972.126883997593	0
1	8778	13973.790539559549	0
1	8780	13976.982343144509	0
1	8782	13978.450757635359	0
1	8784	13978.545628317292	0
1	8787	13980.553572141445	0
1	8790	13982.678127972211	0
1	8792	13982.896614623787	0
1	8795	13984.998707295908	0
1	8798	13986.407627474101	0
1	8800	13986.745080824736	0
1	8803	13988.62394366917	0
1	8805	13992.264597287398	0
1	8807	13995.660398663128	0
1	8810	14001.294191265969	0
1	8813	14001.453450333328	1
1	8815	14007.688078450357	0
1	8818	14008.68536360397	1
1	8820	14009.56485209387	2
1	8822	14012.880147131188	3
1	8824	14013.132518439634	2
1	8827	14016.701726641897	1
1	8830	14022.521231560812	0
1	8833	14025.752294510252	1
1	8835	14028.07727892699	0
1	8838	14029.332636054406	0
1	8840	14031.200739536698	0
1	8842	14032.493708600775	0
1	8845	14034.06713021653	0
1	8848	14034.522441951031	0
1	8850	14040.726167054107	0
1	8852	14051.542736988498	0
1	8855	14058.99108466386	0
1	8857	14060.004329604304	0
1	8860	14066.512787522201	0
1	8863	14068.689176477707	1
1	8865	14078.896167029181	2
1	8867	14079.158308493558	1
1	8870	14079.734087245827	2
1	8872	14092.427011419557	1
1	8875	14092.825065138577	2
1	8877	14095.054021268295	3
1	8879	14096.267578313298	2
1	8882	14096.742117439694	1
1	8885	14097.041209578063	0
1	8888	14102.705704907155	0
1	8890	14107.883522285669	0
1	8892	14110.952310725143	0
1	8894	14130.938044275959	0
1	8897	14131.409379383481	0
1	8899	14135.931129839084	0
1	8901	14141.186802738468	0
1	8904	14143.985236357427	0
1	8906	14148.581333608729	0
1	8909	14160.863303367472	0
1	8911	14164.068024271971	0
1	8914	14168.931218768996	0
1	8916	14169.54473780824	0
1	8918	14177.222335829918	0
1	8921	14181.532885132142	0
1	8923	14183.116466908537	0
1	8925	14191.408343601475	0
1	8928	14217.707576697444	0
1	8931	14221.756716529134	0
1	8934	14232.39407047827	0
1	8936	14244.874692557275	0
1	8939	14245.531579870804	0
1	8941	14253.697706781624	0
1	8944	14254.914359975581	0
1	8947	14256.749507274603	0
1	8950	14260.921800321581	0
1	8953	14263.697269082215	1
1	8955	14264.254473054304	0
1	8958	14266.829649068142	1
1	8960	14277.952594211498	0
1	8963	14284.724033212468	0
1	8965	14284.96243831673	0
1	8968	14285.689936521487	1
1	8970	14285.794634001739	2
1	8972	14293.819031702817	3
1	8974	14294.534128784117	4
1	8976	14295.196802813344	3
1	8979	14304.109033447964	2
1	8982	14305.185688156737	3
1	8984	14307.050090386569	4
1	8986	14315.903701447977	3
1	8989	14321.090664065158	2
1	8992	14322.127833395607	3
1	8994	14322.342957704325	4
1	8996	14323.047244993124	3
1	8999	14323.390909061541	4
1	9001	14324.992533087758	5
1	9003	14329.650721295546	4
1	9006	14330.177837402432	3
1	9009	14341.721024265757	4
1	9011	14348.719174017207	5
1	9013	14349.234550155992	4
1	9016	14356.957662202156	5
1	9018	14357.529743521954	4
1	9021	14361.335152763501	5
1	9023	14371.072863613378	6
1	9025	14386.809510422326	5
1	9028	14388.927767291593	6

