version 2
run POLICY_1-30-20191213-12:40:09-1220
attr configname POLICY_1
attr datetime 20191213-12:40:09
attr experiment POLICY_1
attr inifile omnetpp.ini
attr iterationvars ""
attr iterationvarsf ""
attr measurement ""
attr network Carrefour
attr processid 1220
attr repetition 30
attr replication #30
attr resultdir results
attr runnumber 30
attr seedset 30
param **.policy 1
param **.delta 0s
param **.tillsNumber 7
param **.capacity 0.3
param **.meanInterArrivalTime 8s
param **.meanItemsInACart 12
param **.interArrivalDistribution 0
param **.itemsInCartDistribution 0

vector 0 Carrefour.decider stats_numCustomers:vector ETV
attr "" ""
attr source numCustomers
vector 1 Carrefour.decider stats_numCustomersQueue:vector ETV
attr "" ""
attr source numCustomersQueue
0	628	1201.556023649581	3
0	631	1205.545609660556	4
0	634	1206.049526075448	3
0	636	1206.828692085582	2
0	638	1214.304252717078	3
0	641	1220.06617333103	4
0	644	1235.178384405377	5
0	647	1255.476465981581	6
0	650	1258.296948127448	5
0	652	1263.554435171294	6
0	655	1267.4638332192	7
0	658	1269.198383171312	6
0	660	1273.268035193751	5
0	662	1280.639273029277	6
0	665	1285.377395191075	7
0	668	1291.159281658499	8
0	670	1292.104252204922	7
0	673	1295.909868433693	8
0	675	1296.990660594747	9
0	677	1299.435061622387	10
0	679	1300.014443806083	9
0	682	1301.659988459113	10
0	684	1302.862235966846	9
0	687	1304.156273895269	8
0	690	1314.122911916095	7
0	693	1315.713401779008	6
0	695	1318.127918668216	5
0	697	1319.513151503039	4
0	699	1322.800853798798	5
0	702	1325.074512537077	6
0	705	1327.574486034623	5
0	707	1330.880428798685	6
0	710	1333.419277865564	5
0	712	1339.318143028979	6
0	715	1348.046350733859	7
0	718	1349.497910355828	8
0	720	1357.823103394157	7
0	723	1361.029065068088	6
0	725	1363.781910811028	7
0	728	1374.610229085067	6
0	730	1376.654069873297	7
0	733	1376.68145752945	8
0	735	1377.500073612676	9
0	737	1382.377836578763	8
0	740	1384.238552348345	7
0	743	1384.49882680111	8
0	745	1387.870838898308	7
0	748	1392.395428608134	8
0	750	1396.123623374757	7
0	753	1397.753056118956	8
0	755	1415.233426537307	9
0	757	1417.790694562124	10
0	759	1421.891042605788	9
0	762	1423.138094265375	8
0	765	1425.679447131395	7
0	768	1427.092710754037	8
0	770	1429.692872502834	9
0	772	1441.238632720225	10
0	774	1445.686286566037	9
0	777	1445.926203541899	8
0	780	1447.403992480441	7
0	783	1450.813890070584	6
0	785	1451.609434440993	5
0	787	1454.229508470853	6
0	790	1464.855438376242	5
0	792	1469.178179044355	6
0	795	1471.642541020129	5
0	797	1473.866909767404	6
0	800	1479.271612968105	7
0	803	1482.422868362055	8
0	805	1482.584020693552	9
0	807	1488.383102230039	8
0	810	1490.336774719871	9
0	812	1491.597606140457	8
0	815	1497.448809648862	7
0	818	1498.931257174717	6
0	820	1498.963507041092	5
0	822	1499.122484134065	4
0	824	1506.794448908595	3
0	826	1510.718166462311	2
0	828	1512.045895858048	3
0	831	1519.452482945532	4
0	834	1520.17962223608	3
0	836	1531.383200456502	4
0	839	1532.084535703374	3
0	841	1534.803182211226	2
0	843	1536.82852360966	3
0	846	1538.031297764712	2
0	848	1552.061325103462	3
0	851	1552.547870031796	2
0	853	1562.00574276214	3
0	856	1566.502891999567	2
0	858	1576.566611300517	3
0	861	1583.749367204733	4
0	864	1591.079541406458	5
0	867	1596.251449927034	6
0	870	1598.951646334167	5
0	872	1599.241764407536	6
0	875	1601.220404637983	5
0	877	1603.526427738929	6
0	880	1610.169261209538	5
0	882	1610.289496973533	4
0	884	1613.92922667564	3
0	886	1614.377749213728	4
0	889	1617.944328079586	3
0	891	1625.672772781706	4
0	894	1632.09214231245	3
0	896	1639.120262466356	4
0	899	1639.334030929374	5
0	902	1640.679122344594	6
0	905	1641.410999018484	5
0	907	1642.679937098181	4
0	909	1644.722604347436	5
0	912	1651.90260868008	4
0	914	1664.764605742807	3
0	916	1671.641456453628	4
0	919	1677.288057526887	5
0	922	1686.51212476469	4
0	924	1691.21561360657	3
0	926	1691.330751731789	4
0	929	1702.171241179236	5
0	932	1704.185626261583	6
0	935	1709.615163780334	7
0	938	1709.896299329087	6
0	940	1713.869636884514	7
0	943	1719.94585514198	6
0	945	1728.306970795044	5
0	947	1728.631624422223	6
0	950	1730.267958487561	7
0	953	1730.307320053545	8
0	955	1734.828484080331	9
0	957	1736.303263884109	10
0	959	1737.207891062924	11
0	961	1742.934552096748	10
0	964	1744.572336629316	11
0	966	1746.022107100706	12
0	968	1754.348434863738	13
0	970	1756.228745014153	12
0	973	1759.202100872495	11
0	976	1761.759541299548	10
0	979	1764.354671164751	11
0	981	1772.970505863534	12
0	983	1781.311562553184	11
0	986	1787.03122494843	10
0	989	1789.142388725419	9
0	992	1790.653003672677	10
0	994	1794.949189787731	9
0	997	1796.954886620934	10
0	999	1797.746315651945	9
0	1002	1805.384667001608	10
0	1004	1807.069162448738	11
0	1006	1815.859744525638	10
0	1009	1816.363991192931	9
0	1012	1820.103224208543	8
0	1015	1821.404330261919	7
0	1018	1823.649261882207	6
0	1020	1828.484950194245	5
0	1022	1832.003061088664	4
0	1024	1835.974971547836	5
0	1027	1837.375833965742	6
0	1030	1839.435832429386	7
0	1033	1841.333761285491	8
0	1035	1842.3585493813	7
0	1038	1844.389655419494	8
0	1040	1846.3382414007	7
0	1043	1849.426307956542	8
0	1045	1851.448299346977	9
0	1047	1851.698314373848	10
0	1049	1853.885725577896	9
0	1052	1856.447354928306	10
0	1054	1859.598643373508	11
0	1056	1859.958331594404	10
0	1059	1864.465200193259	11
0	1061	1868.207679244539	12
0	1063	1868.550296728035	11
0	1066	1873.168950148624	10
0	1069	1875.654625640327	11
0	1071	1878.004797634952	10
0	1074	1880.908562590592	9
0	1077	1883.836959940637	8
0	1080	1891.073512472582	7
0	1083	1894.990229737114	8
0	1085	1895.338288780536	7
0	1088	1895.463689795629	6
0	1090	1895.828859843692	7
0	1093	1896.042377032963	6
0	1095	1896.53567363117	5
0	1097	1897.861317792276	6
0	1100	1901.856587265936	7
0	1103	1903.157960992035	8
0	1105	1907.093980747669	7
0	1108	1912.309940842694	6
0	1110	1916.272472593065	7
0	1113	1916.333164178365	6
0	1115	1922.964427916393	5
0	1117	1924.939840672286	6
0	1120	1928.750911123182	5
0	1122	1931.359887313842	4
0	1124	1936.858244701403	3
0	1126	1954.452997796566	4
0	1129	1968.785052902669	5
0	1132	1973.461632577884	6
0	1135	1975.635816950875	7
0	1138	1978.238842357887	8
0	1140	1979.263480634487	7
0	1143	1982.484930493694	6
0	1145	1982.944243084775	5
0	1147	1983.508318989284	6
0	1150	1985.194720561567	5
0	1152	1988.256835694071	6
0	1155	1993.370264159873	5
0	1157	1993.648668459395	4
0	1159	1995.491574575726	3
0	1161	2000.080235688233	4
0	1164	2002.300226378272	5
0	1167	2017.23702290418	4
0	1169	2026.607558403345	5
0	1172	2028.281616112103	4
0	1174	2035.958914502808	3
0	1176	2045.800860144748	4
0	1179	2047.491066473868	5
0	1182	2050.621358399621	4
0	1184	2053.22065202374	3
0	1186	2056.282188550397	4
0	1189	2063.874393173397	3
0	1191	2067.090387357606	2
0	1193	2071.072253483946	1
0	1195	2086.37519913354	0
0	1197	2098.660501608252	1
0	1200	2110.722318033322	2
0	1203	2118.731251145748	3
0	1206	2119.701021992629	4
0	1209	2121.323873099258	5
0	1212	2127.0057930432	4
0	1214	2136.606488454595	3
0	1216	2139.700067774694	4
0	1219	2167.889260029822	3
0	1221	2169.329833505537	4
0	1224	2170.862391509307	3
0	1226	2171.040119050655	2
0	1228	2189.96473725651	3
0	1231	2196.831937334509	4
0	1234	2210.219108784935	5
0	1237	2213.542922865139	6
0	1240	2214.442573101805	7
0	1243	2217.279616325196	8
0	1245	2221.310327288264	9
0	1247	2232.030854404526	10
0	1249	2234.671549703295	9
0	1252	2237.912934232402	8
0	1255	2250.095849132653	7
0	1258	2251.726595271076	6
0	1260	2253.87588347352	7
0	1263	2260.455348988813	8
0	1265	2262.174481417875	7
0	1268	2266.105299749421	6
0	1270	2268.028375375783	5
0	1272	2269.112063079344	6
0	1275	2272.545846302166	7
0	1278	2285.483722917706	6
0	1280	2286.904632418205	5
0	1282	2287.057593182646	4
0	1284	2287.9051798334	5
0	1287	2292.847289398844	4
0	1289	2300.685922204481	3
0	1291	2301.613321071049	4
0	1294	2302.924180256354	5
0	1297	2309.571336577162	6
0	1300	2314.534400345761	5
0	1302	2319.232981556626	6
0	1305	2324.04482064046	7
0	1308	2324.620349358566	8
0	1310	2328.990350089148	7
0	1313	2334.586869156671	6
0	1315	2334.761866415331	5
0	1317	2336.733061605748	4
0	1319	2345.674454906564	5
0	1322	2347.331493478262	4
0	1324	2350.676158427719	3
0	1326	2352.623554534466	4
0	1329	2367.671484250465	5
0	1332	2379.286592982785	6
0	1335	2380.206716621856	7
0	1338	2381.425080174199	6
0	1340	2381.90583186132	5
0	1342	2384.825585975032	6
0	1345	2385.176754436856	7
0	1348	2386.288215200648	8
0	1350	2392.668601564831	7
0	1353	2396.931864453688	8
0	1355	2397.948406609216	9
0	1357	2403.443039725847	8
0	1360	2405.238651110044	9
0	1362	2408.544886559933	10
0	1364	2408.762217886704	9
0	1367	2409.537541285261	8
0	1370	2413.391565302083	9
0	1372	2414.806594104833	10
0	1374	2416.834378899616	11
0	1376	2424.473298916978	10
0	1379	2425.866828755369	11
0	1381	2430.459474394066	12
0	1383	2435.57306941629	11
0	1386	2438.302642349397	12
0	1388	2438.708493379821	11
0	1391	2445.512082622336	10
0	1394	2450.344145768452	9
0	1397	2452.575896318604	8
0	1400	2452.871827603335	9
0	1402	2453.849717524981	8
0	1405	2461.855020064313	7
0	1408	2462.64610130265	6
0	1410	2464.018645346438	5
0	1412	2467.469968109321	4
0	1414	2467.57310837543	3
0	1416	2471.456488747532	4
0	1419	2472.618284949787	5
0	1422	2479.841455796368	4
0	1424	2480.716863147393	3
0	1426	2481.349804523785	2
0	1428	2485.923369740508	3
0	1431	2488.031301544941	2
0	1433	2492.41177084403	3
0	1436	2492.577945301867	2
0	1438	2497.245300790449	3
0	1441	2498.940029848094	4
0	1444	2507.92120310994	5
0	1447	2517.453170007473	4
0	1449	2529.973460044912	3
0	1451	2536.373958127707	4
0	1454	2546.792296790203	5
0	1457	2548.335839249676	4
0	1459	2553.159470292752	3
0	1461	2553.946466091004	2
0	1463	2557.264592680083	1
0	1465	2562.094407600006	2
0	1468	2563.741719312106	3
0	1471	2565.770963622882	4
0	1474	2566.213289817719	5
0	1477	2569.522973792694	4
0	1479	2572.751319381829	3
0	1481	2575.569349838709	4
0	1484	2592.462503267049	5
0	1487	2593.559595612772	4
0	1489	2594.577347324484	5
0	1492	2600.569972892119	6
0	1495	2600.677217641507	7
0	1498	2610.8807671545	8
0	1500	2611.968490335028	9
0	1502	2619.014973521914	8
0	1505	2620.155631550325	7
0	1508	2620.169649892149	6
0	1510	2621.666443183879	7
0	1513	2621.835210189591	8
0	1515	2622.748315466536	7
0	1518	2629.175810295572	8
0	1520	2643.095336737288	9
0	1522	2647.440862487787	8
0	1525	2651.741427431114	7
0	1528	2658.212051717763	8
0	1530	2660.487674577059	7
0	1533	2662.483407520566	8
0	1535	2666.103963406328	7
0	1538	2667.870324387258	6
0	1540	2670.471902441107	7
0	1543	2672.30425688916	8
0	1545	2674.70413962297	9
0	1547	2675.849719409759	10
0	1549	2680.027184624328	11
0	1551	2684.630049590035	12
0	1553	2698.590080178481	13
0	1555	2700.422928273823	14
0	1557	2700.997975089153	15
0	1559	2710.243855792256	16
0	1561	2712.748695341961	15
0	1564	2713.381162634871	14
0	1567	2717.151728520408	13
0	1570	2719.037535642096	14
0	1572	2727.128665440894	15
0	1574	2728.235922399078	16
0	1576	2728.917755912034	15
0	1579	2730.115547945642	16
0	1581	2730.539756948511	15
0	1584	2732.790866625047	14
0	1587	2738.377194958233	13
0	1590	2739.467708985051	14
0	1592	2741.129030093485	13
0	1595	2745.540401747224	12
0	1598	2749.199825781185	13
0	1600	2749.789732454575	12
0	1603	2755.018831138409	13
0	1605	2757.975078941257	12
0	1608	2761.421963890578	13
0	1610	2763.321306610582	12
0	1613	2765.285311290359	11
0	1616	2767.056377550791	10
0	1619	2767.248586766829	9
0	1622	2769.009848651118	8
0	1625	2771.413528646322	7
0	1628	2774.899438526	6
0	1630	2797.836596328978	7
0	1633	2801.34316748988	8
0	1635	2803.28932366697	7
0	1638	2805.481748667366	8
0	1640	2805.704852456971	7
0	1643	2807.059179306192	6
0	1645	2807.191804638579	7
0	1648	2813.657437681086	6
0	1650	2820.412308300637	5
0	1652	2821.458888956219	6
0	1655	2826.643116510243	7
0	1658	2830.707280379468	8
0	1660	2830.827826953335	7
0	1663	2831.557223175794	6
0	1665	2832.677901779968	5
0	1667	2835.876438127971	4
0	1669	2837.433201449877	5
0	1672	2838.701057775854	6
0	1675	2840.813198015997	5
0	1677	2843.728435384537	6
0	1680	2846.180678156212	5
0	1682	2854.303648428326	6
0	1685	2856.806834660406	5
0	1687	2857.667990884887	4
0	1689	2863.177074002814	3
0	1691	2867.681402915417	4
0	1694	2874.3785867228	5
0	1697	2875.577400343596	4
0	1699	2876.177378807996	3
0	1701	2879.743630950179	4
0	1704	2881.011152671063	3
0	1706	2888.361882439597	4
0	1709	2889.273342672566	5
0	1712	2890.627690124083	6
0	1715	2892.981212523211	7
0	1718	2902.689796071896	6
0	1720	2907.273804420502	7
0	1723	2912.167529700629	8
0	1725	2915.23860263416	9
0	1727	2915.693019504198	8
0	1730	2924.458497023615	7
0	1733	2931.406808052645	6
0	1735	2937.8795390359	5
0	1737	2946.757547306408	4
0	1739	2947.22797646504	5
0	1742	2951.74757559379	6
0	1745	2961.717646646852	5
0	1747	2970.707157313239	6
0	1750	2975.786415271979	7
0	1753	2981.654802658095	6
0	1755	2992.768980414322	5
0	1757	2995.211377408423	4
0	1759	2995.444517514436	3
0	1761	3007.280365113893	2
0	1763	3017.584703898557	3
0	1766	3025.18971937847	4
0	1769	3029.551024997548	5
0	1772	3029.999482450006	4
0	1774	3046.494209098925	3
0	1776	3047.128075669084	4
0	1779	3050.465090638048	5
0	1782	3052.101020985975	4
0	1784	3070.872662863221	3
0	1786	3071.047724333478	4
0	1789	3074.351935085136	5
0	1792	3081.00801210962	6
0	1795	3084.590944163861	7
0	1798	3087.215326013841	8
0	1800	3096.232062371987	9
0	1802	3096.561370206385	8
0	1805	3096.893929691223	9
0	1807	3100.201938140624	8
0	1810	3100.895971960203	7
0	1813	3109.371785445898	8
0	1815	3111.718323723072	9
0	1817	3114.62890859677	8
0	1820	3116.044816534808	7
0	1823	3118.070950602239	8
0	1825	3128.063560594145	9
0	1827	3133.557500251201	8
0	1830	3134.82139345133	7
0	1833	3135.026268716821	6
0	1835	3140.375353530504	7
0	1838	3140.660282250933	8
0	1840	3145.761992112822	9
0	1842	3145.982910643853	10
0	1844	3159.443174994635	9
0	1847	3171.288940460776	8
0	1850	3171.831048048714	7
0	1853	3172.966752546305	6
0	1855	3174.603663112685	7
0	1858	3174.745504479257	6
0	1860	3175.580927743204	5
0	1862	3176.052752654682	6
0	1865	3177.45548187327	7
0	1868	3177.653958280081	6
0	1870	3178.32953857078	7
0	1873	3180.144616750635	8
0	1875	3180.957387652043	7
0	1878	3181.274718956698	6
0	1880	3186.693233152494	5
0	1882	3189.52253066277	4
0	1884	3190.462006657885	3
0	1886	3194.744056074654	4
0	1889	3196.856897600322	5
0	1892	3197.021773650234	6
0	1895	3200.050415602553	7
0	1898	3201.807644161808	8
0	1900	3204.144722982216	9
0	1902	3206.502441875372	10
0	1904	3209.301382579012	9
0	1907	3212.884542958848	8
0	1910	3213.110344656225	9
0	1912	3215.526889899098	10
0	1914	3217.313357582796	11
0	1916	3217.525012515452	10
0	1919	3224.544120090493	9
0	1922	3234.129175985281	8
0	1925	3235.264155760091	9
0	1927	3241.854088966928	8
0	1930	3245.869635780825	9
0	1932	3247.687699386142	10
0	1934	3249.703261636985	11
0	1936	3250.46497439553	12
0	1938	3253.862730931528	11
0	1941	3258.927186048752	12
0	1943	3261.272039130542	11
0	1946	3263.176757526359	12
0	1948	3274.534539321623	11
0	1951	3276.001694773558	10
0	1954	3277.867923434482	9
0	1957	3279.401969308335	10
0	1959	3283.26211193695	9
0	1962	3283.887811102927	8
0	1965	3285.785058909356	7
0	1968	3287.020309752256	8
0	1970	3288.006143684281	9
0	1972	3291.90222307375	8
0	1975	3293.183477062952	7
0	1978	3294.128866690593	8
0	1980	3296.041108476759	9
0	1982	3316.277043482356	8
0	1985	3318.342187603949	7
0	1988	3322.026671967769	8
0	1990	3327.865718325128	9
0	1992	3330.079333021754	10
0	1994	3330.354400936325	11
0	1996	3332.37675503694	12
0	1998	3335.631296026449	11
0	2001	3336.197503500116	12
0	2003	3336.212671076379	13
0	2005	3337.876075658695	14
0	2007	3340.438396058315	13
0	2010	3341.078413422378	14
0	2012	3355.709002684809	15
0	2014	3356.186273800876	14
0	2017	3358.198399196198	13
0	2020	3372.731383861683	12
0	2023	3373.347477136877	11
0	2026	3374.843627779164	12
0	2028	3376.752591263253	13
0	2030	3383.333006299501	14
0	2032	3386.537160060318	13
0	2035	3390.342682161483	14
0	2037	3390.491023269525	13
0	2040	3390.498370304349	12
0	2043	3391.434478022602	13
0	2045	3394.342169784217	12
0	2048	3398.912750020955	13
0	2050	3413.672635352119	12
0	2053	3416.032854970657	11
0	2056	3422.888736556845	10
0	2059	3426.621650621494	11
0	2061	3432.788133339787	12
0	2063	3443.697895564676	13
0	2065	3448.584044790275	14
0	2067	3449.729812425124	15
0	2069	3450.861080353127	16
0	2071	3454.099443855269	15
0	2074	3456.214588674471	14
0	2077	3458.433726664407	15
0	2079	3464.885474124606	16
0	2081	3466.102410787204	15
0	2084	3467.724403946284	14
0	2087	3470.26527528779	15
0	2089	3473.963201225298	14
0	2092	3476.302770038362	13
0	2095	3477.355477639167	12
0	2098	3478.532644582543	11
0	2101	3480.569292173516	10
0	2104	3484.736768972076	9
0	2107	3485.94640987921	8
0	2110	3487.242740670234	7
0	2113	3489.896253205289	6
0	2115	3493.130597868782	5
0	2117	3497.931507965763	6
0	2120	3502.057962295828	5
0	2122	3503.014217030699	6
0	2125	3505.398502040279	7
0	2128	3507.949786158223	6
0	2130	3509.684345164906	5
0	2132	3515.605297931448	4
0	2134	3524.040105520161	5
0	2137	3524.513398538966	6
0	2140	3525.102628488202	7
0	2143	3529.917347978379	6
0	2145	3530.34550673526	7
0	2148	3531.931921904194	8
0	2150	3542.127328893644	7
0	2153	3543.384910022964	8
0	2155	3543.432340034026	9
0	2157	3544.574055650674	10
0	2159	3549.915974741653	9
0	2162	3550.220041217369	8
0	2165	3554.331823905549	7
0	2168	3590.453494112728	6
0	2170	3591.019263616886	5
0	2172	3600.410810422483	6
0	2175	3602.240665000237	7
0	2178	3615.956107707642	6
0	2180	3622.520462975426	7
0	2183	3623.061855345601	8
0	2185	3623.3779888111	9
0	2187	3627.222922189043	8
0	2190	3629.326217900081	9
0	2192	3632.944139560506	8
0	2195	3634.90933706361	7
0	2198	3635.591024800563	8
0	2200	3639.376758491632	7
0	2203	3646.183127587581	8
0	2205	3647.334416858902	9
0	2207	3647.38037176327	8
0	2210	3655.096511285637	9
0	2212	3668.553264586689	8
0	2215	3669.545174837892	9
0	2217	3676.429946735775	8
0	2220	3682.320704292248	7
0	2223	3685.350275921422	6
0	2225	3685.455646962498	5
0	2227	3693.019019897043	6
0	2230	3694.598335623043	5
0	2232	3694.898121338465	6
0	2235	3697.065300203564	5
0	2237	3700.209349550556	4
0	2239	3703.464685514415	3
0	2241	3707.167453950926	2
0	2243	3708.502010284785	3
0	2246	3712.622932143421	2
0	2248	3714.503184173193	1
0	2250	3717.002454137635	2
0	2253	3717.556181889499	3
0	2256	3719.54763279739	2
0	2258	3720.335170907417	3
0	2261	3722.817210867835	4
0	2264	3726.673732367131	3
0	2266	3730.324891464237	4
0	2269	3734.78609657019	3
0	2271	3740.199005030762	2
0	2273	3744.45159339565	3
0	2276	3759.670878709885	2
0	2278	3764.724029174274	1
0	2280	3772.979160075292	0
0	2282	3773.782320929745	1
0	2285	3784.907463137103	2
0	2288	3793.729539479948	3
0	2291	3794.056545474536	4
0	2294	3794.608158952488	5
0	2297	3795.336648549221	4
0	2299	3799.963656540362	5
0	2302	3801.907295999282	6
0	2305	3803.207439400913	7
0	2308	3804.034452334826	6
0	2310	3804.83649441584	5
0	2312	3807.988664721597	4
0	2314	3808.020349203354	5
0	2317	3808.044516671149	4
0	2319	3809.38084924441	5
0	2322	3813.511754915285	6
0	2325	3817.826848137505	7
0	2328	3818.022406561176	6
0	2330	3818.927069823113	7
0	2333	3821.971205324625	8
0	2335	3823.037396231264	7
0	2338	3827.99233816371	8
0	2340	3830.15829573958	9
0	2342	3831.09414750502	10
0	2344	3832.492923737674	9
0	2347	3833.459511983367	8
0	2350	3836.110357389526	9
0	2352	3836.622186472665	10
0	2354	3838.767624402953	9
0	2357	3853.856333708783	8
0	2360	3854.572116827172	7
0	2363	3855.250112475091	6
0	2365	3855.588485535666	7
0	2368	3855.813836553742	8
0	2370	3856.340298391523	9
0	2372	3862.187848095554	10
0	2374	3863.582237284708	9
0	2377	3865.148278744055	10
0	2379	3866.309896097391	9
0	2382	3869.847506584762	10
0	2384	3873.279308212168	11
0	2386	3873.4597495726	10
0	2389	3874.322558577347	11
0	2391	3877.640491318055	10
0	2394	3878.260096169749	9
0	2397	3882.662939385951	10
0	2399	3898.493898358189	9
0	2402	3900.791987965741	8
0	2405	3902.274095779419	7
0	2408	3905.771943402848	6
0	2410	3906.062017694898	5
0	2412	3908.567902287107	4
0	2414	3924.516430826697	3
0	2416	3931.622116292068	4
0	2419	3956.616009672994	3
0	2421	3961.77376049475	2
0	2423	3984.100259971939	1
0	2425	3984.416338875823	0
0	2427	4004.578173620306	1
0	2430	4014.352527775511	2
0	2433	4018.29659669686	3
0	2436	4022.73431032464	2
0	2438	4026.117676614937	1
0	2440	4027.148995523669	0
0	2442	4035.485668792226	1
0	2445	4044.904663050705	2
0	2448	4047.892230357643	1
0	2450	4048.704939562625	0
0	2452	4049.435264293186	1
0	2455	4052.381174801641	2
0	2458	4058.958124165116	3
0	2461	4059.104931521088	4
0	2464	4060.398204387976	3
0	2466	4067.100110851716	4
0	2469	4067.115442690827	5
0	2472	4069.603668976047	6
0	2475	4074.11347141348	5
0	2477	4074.767847620618	6
0	2480	4083.569659079479	5
0	2482	4091.904515495227	6
0	2485	4092.04535912473	7
0	2488	4093.130232817797	6
0	2490	4094.363790046363	7
0	2493	4095.0545891753	6
0	2495	4097.783315220496	7
0	2498	4100.072906000559	8
0	2500	4102.505885434687	9
0	2502	4103.837565374303	8
0	2505	4103.934354246224	7
0	2508	4105.093909141748	6
0	2510	4109.160332935344	7
0	2513	4109.439688317518	6
0	2515	4113.062445842247	5
0	2517	4114.921959426696	6
0	2520	4116.786666229269	7
0	2523	4117.132342969093	6
0	2525	4129.385870338198	5
0	2527	4133.511560114069	6
0	2530	4134.3249147528	5
0	2532	4136.97338716721	6
0	2535	4151.461144402076	5
0	2537	4158.320027598478	6
0	2540	4158.729543187814	5
0	2542	4165.276613097542	6
0	2545	4167.816570299215	5
0	2547	4169.625346654248	6
0	2550	4177.071915546245	7
0	2553	4177.579357097147	6
0	2555	4181.529272949123	5
0	2557	4183.008038052276	4
0	2559	4198.462178168357	5
0	2562	4200.304030555197	6
0	2565	4202.500988861345	7
0	2568	4202.921410747154	6
0	2570	4205.720694520046	5
0	2572	4216.117550713386	6
0	2575	4218.533852882346	7
0	2578	4229.193076206137	8
0	2580	4229.271030504607	9
0	2582	4231.776584301852	8
0	2585	4238.892520508039	7
0	2588	4239.848443457356	6
0	2590	4244.66694397541	5
0	2592	4246.231730692726	4
0	2594	4247.96739894115	5
0	2597	4248.477806082388	4
0	2599	4250.228384316756	3
0	2601	4258.435783961283	4
0	2604	4259.293858160676	5
0	2607	4260.609694018281	6
0	2610	4260.966508219646	5
0	2612	4262.667621996875	4
0	2614	4265.441930412923	5
0	2617	4266.994477756469	6
0	2620	4268.113251297386	5
0	2622	4273.389184866846	6
0	2625	4283.727895552696	5
0	2627	4285.556643242254	6
0	2630	4287.514258467848	5
0	2632	4288.061271290032	4
0	2634	4295.188760137782	3
0	2636	4312.88504064229	4
0	2639	4314.740060039352	3
0	2641	4315.730339962039	2
0	2643	4320.570456981429	1
0	2645	4324.737993069198	2
0	2648	4331.769494540614	3
0	2651	4341.177273585723	4
0	2654	4343.845653434204	5
0	2657	4347.141928224224	4
0	2659	4347.806208941289	5
0	2662	4349.27809745635	4
0	2664	4350.343220908375	5
0	2667	4354.047307563893	6
0	2670	4365.863881150493	5
0	2672	4379.869360692919	6
0	2675	4396.617412233978	7
0	2678	4406.945202034567	6
0	2680	4409.569155657515	7
0	2683	4409.920454617004	8
0	2685	4411.300947151206	9
0	2687	4413.3943546024	8
0	2690	4418.264169138549	7
0	2693	4421.374477445221	6
0	2695	4422.748948845205	7
0	2698	4423.258932064713	6
0	2700	4425.062313531762	5
0	2702	4429.90359947653	6
0	2705	4437.023623174657	5
0	2707	4437.337391789414	4
0	2709	4438.498779946672	3
0	2711	4441.444322683345	2
0	2713	4442.476142042627	3
0	2716	4444.144906806482	4
0	2719	4446.38785313808	5
0	2722	4447.54822820741	4
0	2724	4448.208709205774	3
0	2726	4450.572242986692	4
0	2729	4451.818405729643	3
0	2731	4453.818198180087	4
0	2734	4454.406625392656	3
0	2736	4459.411988359604	4
0	2739	4459.723855335019	3
0	2741	4461.275868899022	2
0	2743	4463.28760315411	3
0	2746	4465.076851619068	4
0	2749	4466.061394732764	3
0	2751	4467.954433308864	4
0	2754	4468.160219581294	5
0	2757	4473.545849230125	6
0	2760	4479.149794755655	7
0	2763	4480.400460358036	8
0	2765	4481.217458679176	7
0	2768	4481.610542463056	8
0	2770	4481.817704419877	9
0	2772	4486.736810870507	8
0	2775	4490.269773389219	7
0	2778	4490.799981690263	6
0	2780	4491.701611367417	5
0	2782	4495.03558673229	6
0	2785	4502.928078467884	5
0	2787	4505.478274971418	6
0	2790	4512.91238834768	5
0	2792	4515.223361033269	6
0	2795	4524.267528950907	7
0	2798	4526.389339682296	6
0	2800	4526.495752190291	5
0	2802	4528.382984766844	4
0	2804	4536.128192135925	3
0	2806	4536.631407782376	4
0	2809	4550.157523241895	3
0	2811	4551.786838603636	2
0	2813	4551.860728361087	3
0	2816	4559.201889824246	2
0	2818	4577.454435701417	3
0	2821	4579.202710591088	2
0	2823	4594.82722607296	1
0	2825	4601.913444712016	2
0	2828	4616.5713417951	1
0	2830	4643.818728177898	2
0	2833	4644.450884479851	1
0	2835	4645.919632149905	2
0	2838	4668.965118148879	3
0	2841	4669.11445160097	4
0	2844	4669.841197457499	5
0	2847	4673.801212333172	4
0	2849	4674.499342422944	5
0	2852	4675.469281825583	6
0	2855	4676.545334578999	7
0	2858	4684.459876544694	6
0	2860	4685.701006982137	5
0	2862	4686.095082338463	4
0	2864	4690.620837453005	3
0	2866	4697.058679548554	2
0	2868	4712.891946797955	3
0	2871	4718.730288670972	4
0	2874	4719.009634258034	3
0	2876	4726.556490409438	4
0	2879	4726.707719876854	3
0	2881	4732.18705101468	4
0	2884	4738.82091090237	3
0	2886	4739.917288267477	4
0	2889	4741.770853845174	5
0	2892	4742.727654767488	6
0	2895	4746.717351040495	7
0	2898	4747.936964416901	8
0	2900	4753.356935447357	7
0	2903	4755.040118059296	6
0	2905	4757.617657176725	5
0	2907	4760.249154965455	6
0	2910	4765.763198392105	7
0	2913	4767.377989366546	8
0	2915	4767.702726271285	9
0	2917	4768.325692562412	10
0	2919	4772.104289994935	9
0	2922	4773.752513583878	10
0	2924	4774.867330222678	9
0	2927	4776.145383612864	10
0	2929	4783.498338711245	9
0	2932	4787.071673734984	10
0	2934	4787.10742192104	9
0	2937	4794.025827670346	10
0	2939	4794.488981332415	11
0	2941	4797.554618631781	10
0	2944	4799.730730267617	9
0	2947	4803.814891178037	10
0	2949	4804.817617938782	11
0	2951	4807.779854161962	12
0	2953	4809.68108355216	11
0	2956	4811.988291355679	10
0	2959	4823.95615893068	9
0	2962	4826.122329381465	10
0	2964	4826.552993897307	9
0	2967	4827.964976764352	8
0	2970	4837.047544355602	7
0	2973	4837.817660965816	6
0	2975	4838.347837183403	5
0	2977	4838.6489209198	4
0	2979	4848.550372561251	3
0	2981	4850.547817079654	2
0	2983	4853.63550017898	3
0	2986	4863.242441489889	4
0	2989	4863.485276594178	3
0	2991	4879.237755306083	4
0	2994	4887.549342323696	5
0	2997	4889.743070687856	6
0	3000	4890.105987238792	5
0	3002	4891.437146883191	6
0	3005	4892.808666821035	5
0	3007	4894.191609834421	4
0	3009	4902.488239606779	5
0	3012	4904.25361927366	4
0	3014	4908.538084891085	5
0	3017	4917.530558868411	4
0	3019	4925.440920994791	5
0	3022	4926.356921046647	4
0	3024	4929.569630023773	5
0	3027	4931.26354186378	6
0	3030	4934.694457663636	5
0	3032	4939.290237622572	6
0	3035	4940.236337805932	5
0	3037	4941.65427280225	4
0	3039	4947.008793950483	3
0	3041	4952.824748019581	4
0	3044	4954.225479508956	5
0	3047	4955.932392409688	4
0	3049	4970.80713230518	5
0	3052	4976.194147668576	6
0	3055	4981.158116694494	5
0	3057	4986.558329488742	6
0	3060	4988.916874432823	7
0	3063	4992.059839169122	8
0	3065	4994.659031508227	9
0	3067	4995.958369545635	10
0	3069	4997.665551726543	9
0	3072	4999.031565851529	10
0	3074	4999.168030157123	9
0	3077	5004.193074268957	8
0	3080	5017.949243675138	9
0	3082	5018.574447336036	8
0	3085	5019.726388466886	9
0	3087	5020.441269705102	8
0	3090	5026.197777762633	7
0	3093	5029.338719589052	6
0	3095	5041.371019043787	5
0	3097	5045.799899373365	6
0	3100	5046.762777518158	5
0	3102	5054.236284424187	6
0	3105	5055.340937283457	7
0	3108	5055.739340914794	6
0	3110	5058.184845043223	7
0	3113	5062.702693455289	6
0	3115	5067.852920416433	7
0	3118	5073.055131985074	6
0	3120	5074.38198037694	5
0	3122	5074.403011800534	6
0	3125	5079.179311297449	5
0	3127	5085.131137621027	6
0	3130	5085.138761651235	5
0	3132	5086.922885584994	6
0	3135	5090.512507747246	5
0	3137	5100.719878018965	6
0	3140	5101.623302207373	7
0	3143	5104.887932129495	6
0	3145	5109.623885164431	5
0	3147	5116.131861269634	6
0	3150	5116.151625472037	7
0	3153	5121.004718172657	6
0	3155	5123.701260056894	5
0	3157	5132.876527669463	4
0	3159	5134.925099077869	5
0	3162	5147.669630273824	6
0	3165	5151.608168555531	7
0	3168	5151.641467833985	8
0	3170	5154.709207309657	9
0	3172	5155.633491648697	8
0	3175	5156.105809739296	9
0	3177	5160.892722841637	8
0	3180	5165.533051932174	9
0	3182	5179.631381884448	8
0	3185	5180.15638682908	9
0	3187	5180.940285261277	8
0	3190	5182.383401340083	9
0	3192	5182.503803857663	8
0	3195	5184.77711427512	9
0	3197	5185.636176711627	8
0	3200	5185.694519562923	9
0	3202	5186.430498931766	8
0	3205	5192.362630224683	7
0	3208	5197.989540174371	6
0	3210	5198.367655990856	5
0	3212	5201.201661822555	4
0	3214	5201.541412193081	3
0	3216	5202.801490681469	2
0	3218	5210.426250779606	3
0	3221	5210.696700848933	4
0	3224	5210.851689199256	5
0	3227	5216.623997691621	6
0	3230	5218.289674055072	7
0	3233	5218.529687940084	8
0	3235	5220.46504564085	7
0	3238	5224.313509953393	8
0	3240	5226.809914081322	9
0	3242	5228.603624336609	8
0	3245	5235.235125224949	7
0	3248	5235.542336549857	8
0	3250	5240.220839374039	9
0	3252	5242.66632999178	10
0	3254	5244.428945696517	9
0	3257	5251.059911010477	10
0	3259	5251.649731117429	11
0	3261	5255.090021730193	12
0	3263	5255.15650584847	13
0	3265	5260.102752332018	12
0	3268	5260.588816389075	11
0	3271	5268.648741120934	10
0	3274	5273.958147851619	9
0	3277	5276.155590013158	8
0	3280	5284.409034621041	9
0	3282	5287.151960552933	10
0	3284	5287.645756541964	9
0	3287	5293.052242039873	8
0	3290	5293.111853278956	7
0	3293	5296.479880887415	8
0	3295	5303.061485684604	9
0	3297	5306.706206553839	10
0	3299	5311.213158429525	9
0	3302	5311.275554932091	8
0	3305	5311.610045139528	7
0	3308	5322.74720079422	6
0	3310	5325.327935550874	7
0	3313	5335.442711757008	8
0	3315	5335.668510744373	9
0	3317	5340.200395496443	10
0	3319	5341.250139656528	9
0	3322	5341.73355921035	10
0	3324	5342.417979365876	9
0	3327	5342.87561473303	10
0	3329	5343.769430196159	9
0	3332	5351.675488289237	8
0	3335	5353.357324894229	9
0	3337	5353.623779540536	8
0	3340	5354.99958332472	9
0	3342	5360.556181094046	10
0	3344	5361.789591334361	11
0	3346	5364.220525820263	10
0	3349	5364.597414316719	11
0	3351	5365.164209583982	12
0	3353	5370.412074878373	13
0	3355	5375.813957639779	12
0	3358	5375.90994574075	13
0	3360	5378.092834016839	12
0	3363	5384.003533222717	11
0	3366	5385.685999451534	10
0	3369	5391.671343547562	9
0	3372	5392.038921280335	8
0	3375	5397.406236616788	9
0	3377	5402.15447668457	8
0	3380	5419.518693040526	9
0	3382	5419.799100470617	8
0	3385	5422.329249979382	7
0	3388	5426.266821114292	8
0	3390	5428.217213766013	7
0	3393	5430.01327044461	6
0	3395	5432.998118748272	7
0	3398	5435.029171661768	6
0	3400	5438.324265312766	5
0	3402	5443.971036505113	4
0	3404	5449.708937997833	5
0	3407	5449.881696932511	4
0	3409	5461.358785773164	5
0	3412	5462.30785027847	6
0	3415	5463.07841468587	7
0	3418	5465.711968162254	8
0	3420	5467.651839976798	7
0	3423	5469.141876110067	8
0	3425	5476.804347919095	7
0	3428	5487.803519535055	6
0	3430	5488.993574858559	7
0	3433	5490.000704802784	6
0	3435	5490.046125096335	7
0	3438	5491.316503978034	8
0	3440	5497.925582830436	7
0	3443	5502.202459871285	8
0	3445	5505.835105715617	9
0	3447	5508.057299642181	8
0	3450	5511.569220177877	9
0	3452	5511.720442514291	8
0	3455	5523.221747811183	7
0	3458	5523.383641383706	6
0	3460	5524.762654483749	5
0	3462	5525.80928034455	4
0	3464	5530.797092764244	3
0	3466	5536.512882686017	4
0	3469	5540.908418937768	5
0	3472	5542.261142216643	6
0	3475	5548.183743860117	5
0	3477	5550.904051271924	6
0	3480	5553.053811722296	7
0	3483	5555.788242929145	6
0	3485	5558.824883470237	7
0	3488	5562.178682678453	6
0	3490	5565.121487029052	5
0	3492	5566.287534860285	4
0	3494	5582.146440096696	3
0	3496	5589.366634083114	4
0	3499	5589.514496962775	5
0	3502	5591.437458704974	6
0	3505	5596.249596133669	7
0	3508	5597.14220864749	6
0	3510	5608.036874020498	5
0	3512	5611.889683496186	6
0	3515	5614.295154247136	5
0	3517	5624.270925380297	6
0	3520	5631.611682192143	5
0	3522	5632.319464556453	4
0	3524	5634.578342580785	3
0	3526	5637.196502803952	4
0	3529	5640.1009176802	5
0	3532	5641.223035330949	4
0	3534	5641.394404844996	5
0	3537	5641.564147655593	6
0	3540	5642.257442649094	5
0	3542	5642.964181756579	6
0	3545	5644.648956445947	7
0	3548	5650.676399129465	8
0	3550	5653.887917722068	9
0	3552	5654.170926300748	8
0	3555	5657.15350156986	9
0	3557	5658.497260231042	8
0	3560	5663.524492755502	9
0	3562	5667.267811233573	8
0	3565	5667.631810572675	7
0	3568	5670.387348239375	6
0	3570	5673.839393563594	5
0	3572	5673.868054704369	6
0	3575	5678.017680145465	5
0	3577	5678.533009701158	6
0	3580	5681.327456231104	5
0	3582	5682.274892591778	4
0	3584	5682.433292444852	5
0	3587	5686.656499715412	6
0	3590	5688.932191669316	7
0	3593	5696.327752447557	8
0	3595	5700.651185165381	7
0	3598	5702.269075117137	6
0	3600	5706.991275201911	7
0	3603	5709.772624999239	6
0	3605	5710.705591498553	5
0	3607	5714.386201591028	6
0	3610	5716.883723534734	5
0	3612	5721.647784797971	6
0	3615	5724.032702403263	5
0	3617	5727.990968712106	4
0	3619	5744.716556267962	3
0	3621	5758.048953925554	4
0	3624	5760.67640214274	5
0	3627	5761.274405612312	4
0	3629	5762.204031301544	5
0	3632	5776.481305137723	4
0	3634	5782.283047806926	3
0	3636	5788.609999679542	4
0	3639	5795.366122404276	5
0	3642	5795.444338025754	6
0	3645	5797.043437123588	7
0	3648	5798.595428039982	6
0	3650	5800.947495808987	7
0	3653	5806.121806243901	8
0	3655	5823.223195303641	7
0	3658	5826.577615280847	8
0	3660	5845.283738041658	7
0	3663	5849.577603711823	6
0	3665	5850.242748235275	5
0	3667	5855.922060641264	4
0	3669	5858.820187425651	3
0	3671	5866.290009462848	4
0	3674	5872.213066404277	5
0	3677	5872.229713621117	6
0	3680	5874.156478156503	5
0	3682	5881.212574650969	6
0	3685	5883.679048800234	7
0	3688	5889.939304951702	6
0	3690	5892.939689719754	5
0	3692	5907.220888544008	4
0	3694	5907.423509351775	5
0	3697	5916.175909582487	6
0	3700	5916.382617102787	5
0	3702	5921.294117996213	6
0	3705	5921.296512601862	5
0	3707	5923.078768124621	6
0	3710	5927.552591076756	5
0	3712	5933.796945757884	4
0	3714	5936.28626976547	5
0	3717	5937.595784058775	6
0	3720	5940.380881738146	7
0	3723	5948.507467055982	8
0	3725	5957.977089131183	7
0	3728	5958.029733906811	6
0	3730	5963.701256803437	7
0	3733	5966.583520711032	6
0	3735	5971.332202837058	7
0	3738	5975.467649927583	6
0	3740	5989.144173732383	5
0	3742	5989.917895287812	6
0	3745	5991.013716158592	7
0	3748	5992.537585712065	8
0	3750	6001.474389094113	7
0	3753	6007.312797765379	8
0	3755	6008.31945915811	7
0	3758	6014.337934874993	8
0	3760	6018.454347477877	9
0	3762	6021.501865079164	10
0	3764	6021.520606730735	9
0	3767	6021.856560332499	10
0	3769	6026.506252265061	11
0	3771	6027.44638516867	12
0	3773	6033.268350307086	11
0	3776	6035.346310442618	12
0	3778	6037.139855556724	13
0	3780	6038.925140029134	12
0	3783	6040.209609167037	11
0	3786	6042.211348855969	12
0	3788	6043.698040011482	13
0	3790	6047.637608553907	14
0	3792	6047.673469262869	13
0	3795	6048.306719105741	14
0	3797	6048.699640676913	13
0	3800	6062.211301643124	12
0	3803	6062.223057447984	13
0	3805	6066.085926856136	14
0	3807	6069.946526011278	13
0	3810	6072.704037922078	14
0	3812	6079.98489519239	13
0	3815	6082.925518999632	12
0	3818	6083.304631219154	13
0	3820	6089.667542849301	12
0	3823	6090.724607308252	11
0	3826	6093.68720328824	10
0	3829	6095.123286731607	9
0	3832	6095.536386209791	10
0	3834	6098.089219191645	11
0	3836	6098.47836371582	12
0	3838	6101.826083167524	11
0	3841	6102.609034295951	10
0	3844	6103.177650971331	9
0	3847	6104.9332748859	8
0	3850	6105.950874960892	7
0	3853	6106.292332435263	8
0	3855	6112.135638241251	9
0	3857	6113.238600897715	10
0	3859	6113.86428600011	11
0	3861	6118.10929770425	12
0	3863	6118.39584361384	11
0	3866	6120.173044011692	10
0	3869	6120.231019216715	11
0	3871	6120.365065782616	10
0	3874	6120.817980702058	9
0	3877	6122.585074266301	10
0	3879	6134.994459624206	11
0	3881	6138.97464156338	10
0	3884	6143.707170808545	11
0	3886	6148.320859072193	10
0	3889	6149.772127591944	11
0	3891	6151.960297094714	10
0	3894	6160.692051278677	9
0	3897	6163.008481457025	8
0	3900	6166.208734918114	9
0	3902	6169.117572728671	10
0	3904	6169.599155813226	9
0	3907	6175.769681374955	8
0	3910	6179.507299403468	7
0	3913	6182.065460421764	8
0	3915	6183.307994056278	7
0	3918	6188.806766441405	6
0	3920	6195.933741467061	7
0	3923	6198.832490692385	8
0	3925	6199.723461797683	7
0	3928	6201.743521768475	8
0	3930	6203.425760117448	7
0	3933	6206.102238814344	6
0	3935	6213.353948638901	5
0	3937	6216.386075031314	6
0	3940	6232.896291077956	7
0	3943	6233.584687512118	6
0	3945	6233.674858666313	5
0	3947	6234.033810074111	4
0	3949	6236.650793652441	3
0	3951	6247.776860233855	2
0	3953	6249.156002788027	3
0	3956	6257.899705934376	4
0	3959	6260.997868672066	3
0	3961	6263.967943593384	4
0	3964	6269.639163430193	5
0	3967	6273.489571391729	4
0	3969	6290.507283462098	5
0	3972	6295.697250188023	6
0	3975	6295.923120590477	5
0	3977	6311.123160454034	4
0	3979	6315.110902305464	5
0	3982	6321.67425759296	4
0	3984	6324.870232989985	5
0	3987	6327.517285956276	6
0	3990	6331.318390276371	5
0	3992	6332.564909632669	4
0	3994	6335.059168749024	5
0	3997	6341.515475563139	4
0	3999	6345.107530673581	5
0	4002	6355.536438141878	6
0	4005	6356.070184227202	7
0	4008	6357.174714804341	6
0	4010	6357.822799413185	5
0	4012	6359.417120442225	6
0	4015	6359.897762913669	5
0	4017	6365.985055969066	6
0	4020	6366.564491881757	7
0	4023	6370.202123338744	8
0	4025	6373.309470148246	9
0	4027	6380.856504030271	8
0	4030	6382.523184994919	7
0	4033	6394.595146431683	8
0	4035	6397.407664872288	7
0	4038	6399.904636029683	8
0	4040	6406.014197156646	7
0	4043	6407.404384365939	6
0	4045	6408.503347255435	7
0	4048	6410.532447334516	8
0	4050	6415.250518228221	7
0	4053	6428.683910073176	6
0	4055	6434.274591573298	5
0	4057	6446.774727815992	6
0	4060	6452.900622166091	7
0	4063	6453.785871751629	8
0	4065	6456.08839977246	7
0	4068	6457.247749004783	8
0	4070	6458.447100887558	7
0	4073	6461.03894377051	8
0	4075	6464.717555220933	9
0	4077	6467.900181465826	8
0	4080	6469.058427033839	9
0	4082	6469.591123532505	8
0	4085	6472.367734807686	7
0	4088	6482.197538591043	6
0	4090	6484.425699591259	7
0	4093	6484.492594414317	8
0	4095	6486.04107010624	7
0	4098	6488.902784800185	6
0	4100	6494.765474169246	5
0	4102	6497.741577845258	6
0	4105	6497.92267647432	5
0	4107	6502.888048222363	6
0	4110	6504.688566257035	5
0	4112	6512.626209695711	4
0	4114	6516.638253618226	5
0	4117	6520.829139435729	4
0	4119	6521.719380971752	5
0	4122	6527.096004709398	4
0	4124	6528.299332036172	5
0	4127	6542.307894737364	4
0	4129	6545.703424206682	5
0	4132	6553.959464906916	6
0	4135	6564.589616462497	7
0	4138	6571.949511938875	6
0	4140	6576.219229121213	7
0	4143	6576.538569681214	6
0	4145	6580.114331210155	7
0	4148	6581.888826225496	6
0	4150	6584.894963891785	5
0	4152	6591.53635906118	6
0	4155	6599.150917529733	5
0	4157	6602.399539071945	6
0	4160	6608.170974655474	7
0	4163	6611.873740480689	8
0	4165	6613.961915544826	9
0	4167	6618.873018682045	10
0	4169	6623.814896866113	9
0	4172	6624.218075313884	10
0	4174	6627.040729163528	9
0	4177	6627.285881723969	8
0	4180	6630.083661314953	7
0	4183	6630.317353070919	6
0	4185	6630.396698427243	5
0	4187	6631.786791533402	6
0	4190	6635.221588775399	5
0	4192	6640.275006201502	6
0	4195	6643.120207970252	7
0	4198	6644.887118944533	6
0	4200	6651.15950670575	7
0	4203	6651.8517777695	8
0	4205	6661.237672392314	7
0	4208	6668.113154571503	6
0	4210	6671.873653063884	7
0	4213	6675.73416146137	6
0	4215	6677.583746397171	7
0	4218	6680.605777824073	8
0	4220	6680.912789881311	7
0	4223	6686.789823566493	6
0	4225	6694.897100105324	7
0	4228	6701.884652212402	8
0	4230	6708.38422254821	7
0	4233	6713.656085277714	6
0	4235	6714.673746780701	5
0	4237	6720.383532951933	4
0	4239	6720.812247141586	3
0	4241	6723.290120010392	2
0	4243	6736.201436390362	3
0	4246	6743.066582503492	2
0	4248	6743.788906652411	1
0	4250	6754.036163019623	2
0	4253	6764.288772333655	3
0	4256	6768.20597169078	4
0	4259	6771.156354406987	3
0	4261	6773.300156899333	2
0	4263	6774.184477814187	1
0	4265	6778.47436211964	2
0	4268	6781.605636059834	1
0	4270	6782.751735757257	2
0	4273	6801.365130112215	3
0	4276	6813.288406894971	2
0	4278	6818.692959577415	3
0	4281	6820.88810867287	4
0	4284	6822.95609083549	5
0	4287	6823.648767842747	6
0	4290	6825.871200723121	7
0	4293	6828.994922677497	8
0	4295	6829.891870944806	7
0	4298	6830.67056445902	6
0	4300	6838.111127781416	5
0	4302	6841.320500255728	6
0	4305	6847.300761908003	5
0	4307	6849.857450752827	6
0	4310	6850.128765571809	5
0	4312	6856.8598870298	4
0	4314	6858.817824216115	3
0	4316	6876.920603077987	4
0	4319	6880.762349513441	3
0	4321	6884.534271588042	4
0	4324	6885.217186537593	3
0	4326	6885.812396065822	2
0	4328	6892.4205805509	1
0	4330	6895.415884452594	2
0	4333	6900.942963693381	3
0	4336	6908.59839668982	4
0	4339	6909.949191096718	5
0	4342	6913.496066294259	6
0	4345	6920.826502893876	5
0	4347	6925.565097158855	6
0	4350	6925.613690801623	7
0	4353	6927.000769410678	6
0	4355	6928.754324001492	5
0	4357	6931.042244029777	6
0	4360	6932.669241043291	7
0	4363	6933.391444387024	8
0	4365	6941.886447796913	7
0	4368	6946.196003958764	8
0	4370	6947.352876326839	7
0	4373	6947.884507564886	6
0	4375	6951.782529993763	7
0	4378	6955.191344804871	6
0	4380	6955.448570415739	7
0	4383	6958.991718716616	6
0	4385	6960.964775334818	7
0	4388	6961.357653522148	6
0	4390	6963.328192028124	7
0	4393	6972.178654264871	6
0	4395	6973.102783512689	5
0	4397	6973.652290113378	4
0	4399	6978.032099331767	3
0	4401	6979.588186454775	4
0	4404	6983.50478467306	5
0	4407	6986.465586593266	6
0	4410	6986.4730007217	7
0	4413	6986.8340421265	6
0	4415	6994.741680080114	5
0	4417	7004.746201773009	4
0	4419	7014.569008953314	5
0	4422	7018.427496582679	6
0	4425	7020.885525741164	5
0	4427	7022.262026022326	6
0	4430	7022.275869133159	5
0	4432	7022.788363692137	6
0	4435	7026.03486560167	7
0	4438	7034.242059655258	8
0	4440	7037.250416106286	7
0	4443	7043.676930921581	6
0	4445	7044.442405283221	5
0	4447	7045.199029758659	4
0	4449	7048.178608275737	3
0	4451	7055.265845882098	2
0	4453	7067.079629622128	3
0	4456	7067.192951408512	4
0	4459	7067.47977615212	5
0	4462	7068.247149307908	6
0	4465	7072.075589998436	7
0	4468	7072.665248565111	8
0	4470	7075.213755338878	9
0	4472	7079.449540105531	8
0	4475	7080.020108919858	7
0	4478	7081.882438804028	8
0	4480	7082.171451831602	9
0	4482	7082.94378912281	10
0	4484	7083.037416217238	9
0	4487	7083.34516944898	8
0	4490	7085.744968564561	9
0	4492	7086.134551390524	10
0	4494	7091.376474322395	11
0	4496	7092.464884197084	10
0	4499	7094.285590251244	9
0	4502	7095.841797314889	10
0	4504	7108.23734458894	9
0	4507	7112.59787034994	10
0	4509	7113.909245193435	9
0	4512	7114.717440358661	8
0	4515	7115.026894023281	9
0	4517	7115.722089322423	8
0	4520	7120.18573990985	7
0	4523	7125.76556688112	6
0	4525	7128.913351618697	7
0	4528	7130.225221705679	8
0	4530	7130.689273402723	7
0	4533	7131.340051461151	8
0	4535	7131.694517451267	7
0	4538	7134.504817690134	6
0	4540	7134.898760459488	5
0	4542	7137.334354793439	4
0	4544	7141.805720610308	3
0	4546	7144.549207797491	2
0	4548	7146.061323689722	1
0	4550	7153.319000872557	2
0	4553	7154.567282060713	3
0	4556	7155.216220586581	2
0	4558	7156.266898795476	3
0	4561	7167.761084391789	2
0	4563	7172.439272404098	3
0	4566	7174.513191018578	2
0	4568	7180.998757684441	1
0	4570	7182.281059615938	2
0	4573	7184.457655142607	3
0	4576	7185.243791420136	4
0	4579	7193.84156449806	3
0	4581	7209.096503735203	4
0	4584	7211.574191980626	5
0	4587	7214.533070915011	6
0	4590	7219.276489344681	5
0	4592	7220.609336421081	6
0	4595	7220.88058030726	5
0	4597	7222.829695957936	6
0	4600	7225.58329091092	5
0	4602	7227.153594665446	6
0	4605	7229.607781774122	5
0	4607	7230.867238805499	4
0	4609	7235.294059764733	5
0	4612	7236.153198917587	4
0	4614	7241.566861576614	3
0	4616	7243.416431288297	4
0	4619	7244.120869916228	5
0	4622	7245.955537171049	6
0	4625	7246.397778451347	5
0	4627	7247.225969104857	6
0	4630	7253.916165340556	5
0	4632	7256.460825588424	4
0	4634	7262.421707973157	5
0	4637	7270.746286558355	6
0	4640	7275.153179571841	5
0	4642	7276.419539462388	4
0	4644	7282.246426711121	3
0	4646	7284.36838563158	4
0	4649	7292.435211847235	5
0	4652	7297.941266438579	6
0	4655	7302.392432133563	5
0	4657	7302.858922896402	4
0	4659	7303.03763913524	3
0	4661	7310.113747722353	2
0	4663	7318.141922364712	3
0	4666	7322.120047614635	2
0	4668	7322.998628802637	1
0	4670	7328.486967331393	0
0	4672	7366.01534243157	1
0	4675	7367.772511020434	0
0	4677	7370.37412278965	1
0	4680	7371.460446557883	2
0	4683	7377.120833230281	3
0	4686	7378.109648242982	2
0	4688	7392.171353320738	3
0	4691	7398.14437087449	4
0	4694	7399.712820761036	5
0	4697	7401.139855605631	4
0	4699	7406.547037640709	3
0	4701	7411.191330790508	2
0	4703	7414.92404138868	3
0	4706	7419.543397721417	2
0	4708	7426.45780805539	1
0	4710	7427.199124706915	2
0	4713	7429.794477878281	3
0	4716	7436.336185283253	2
0	4718	7440.899931810203	3
0	4721	7442.151491260832	4
0	4724	7442.394854798454	5
0	4727	7443.628942585957	4
0	4729	7445.44660884317	5
0	4732	7453.684349218268	6
0	4735	7472.08502895371	7
0	4738	7475.717750840423	8
0	4740	7476.42911915388	9
0	4742	7479.158726459337	8
0	4745	7479.176248532735	7
0	4748	7498.690408839473	6
0	4750	7498.713285412295	5
0	4752	7502.74803284558	6
0	4755	7509.691519359111	7
0	4758	7509.855448236492	8
0	4760	7513.935250040985	7
0	4763	7515.439542032798	8
0	4765	7516.552423075846	7
0	4768	7517.385230163376	6
0	4770	7520.641487689163	5
0	4772	7522.786617321895	4
0	4774	7545.689136686374	5
0	4777	7551.016950252519	6
0	4780	7552.035741022501	5
0	4782	7556.950633568387	4
0	4784	7563.79088831962	5
0	4787	7570.107651365107	4
0	4789	7571.470204449009	3
0	4791	7573.509438378854	4
0	4794	7576.54328146936	3
0	4796	7576.595171730172	4
0	4799	7577.357449421969	3
0	4801	7578.178716032694	2
0	4803	7600.269976039279	3
0	4806	7600.653314369843	2
0	4808	7609.4533523928	3
0	4811	7623.894600232535	2
0	4813	7628.872459346503	3
0	4816	7632.726706057987	2
0	4818	7634.047529329481	3
0	4821	7645.998444156279	4
0	4824	7649.744319029979	5
0	4827	7657.90220520431	4
0	4829	7665.80179364677	5
0	4832	7671.369120031595	6
0	4835	7676.087377429197	7
0	4838	7678.017691820736	8
0	4840	7684.5967262434	9
0	4842	7685.591590959098	10
0	4844	7690.009566196763	9
0	4847	7690.236523037243	8
0	4850	7690.652064097478	7
0	4853	7690.941761607483	8
0	4855	7694.887115430804	7
0	4858	7702.151097849794	6
0	4860	7702.592720652713	5
0	4862	7703.087584315259	6
0	4865	7709.289832395758	5
0	4867	7709.380044379434	6
0	4870	7709.856347541941	5
0	4872	7712.609470245269	6
0	4875	7717.628311941638	7
0	4878	7718.999255188957	6
0	4880	7722.386438861124	5
0	4882	7724.566770368108	6
0	4885	7728.797405092023	5
0	4887	7730.139801900063	4
0	4889	7733.567012389698	5
0	4892	7740.844468498801	4
0	4894	7750.894385077253	3
0	4896	7755.591075396041	2
0	4898	7764.240678440499	3
0	4901	7764.469317498538	4
0	4904	7770.945463078296	5
0	4907	7777.75999616289	4
0	4909	7780.492086544227	5
0	4912	7780.555843454604	4
0	4914	7782.661842870745	3
0	4916	7784.093961085703	2
0	4918	7788.508563731299	1
0	4920	7790.865384785842	2
0	4923	7805.309527830013	1
0	4925	7808.066030674451	0
0	4927	7817.806545525573	1
0	4930	7833.151488212413	2
0	4933	7840.201334814781	3
0	4936	7849.788650642564	4
0	4939	7850.365850203435	3
0	4941	7857.254093402192	4
0	4944	7859.784507141906	5
0	4947	7866.987643759565	4
0	4949	7872.124497716914	5
0	4952	7876.981037922985	4
0	4954	7882.013195361831	3
0	4956	7887.695704512242	4
0	4959	7889.036275480581	5
0	4962	7892.883864658651	6
0	4965	7893.032613316383	5
0	4967	7896.550784259881	4
0	4969	7907.830356574998	3
0	4971	7908.599217370731	4
0	4974	7913.502427397162	5
0	4977	7915.296021073684	4
0	4979	7918.298465927923	5
0	4982	7919.425182908087	6
0	4985	7927.442236325581	5
0	4987	7928.030717577046	4
0	4989	7931.912116168869	5
0	4992	7933.607004418714	6
0	4995	7934.075044414312	5
0	4997	7934.984459281509	4
0	4999	7935.692529486002	5
0	5002	7946.565834117408	6
0	5005	7949.204920250686	7
0	5008	7950.943738854508	6
0	5010	7952.522889742723	5
0	5012	7954.809197684443	6
0	5015	7956.582648070989	7
0	5018	7964.195060467882	8
0	5020	7970.255907745158	9
0	5022	7971.999540329131	8
0	5025	7976.544225404129	9
0	5027	7984.624839193228	10
0	5029	7998.876840981306	9
0	5032	8010.773174153021	8
0	5035	8017.799861997619	9
0	5037	8018.112729860814	10
0	5039	8019.557109596484	11
0	5041	8020.556177814922	10
0	5044	8022.182209296454	11
0	5046	8026.033331134291	12
0	5048	8026.671813327323	13
0	5050	8029.567527147969	12
0	5053	8033.90197713535	13
0	5055	8035.761123479691	12
0	5058	8036.25705824354	13
0	5060	8037.347809394271	14
0	5062	8037.995736585824	13
0	5065	8047.033972377468	12
0	5068	8049.466287994941	11
0	5071	8060.650305373554	10
0	5074	8062.792039581025	11
0	5076	8066.190496230706	12
0	5078	8077.273455431424	11
0	5081	8079.721650800938	12
0	5083	8083.123533133774	13
0	5085	8084.131215936604	12
0	5088	8084.311821546891	11
0	5091	8089.285908667339	10
0	5094	8089.803740457855	11
0	5096	8093.678611531411	10
0	5099	8093.815939709582	9
0	5102	8099.940136559206	10
0	5104	8100.0721520364	9
0	5107	8114.217333935048	10
0	5109	8118.255076709606	11
0	5111	8122.324963286922	10
0	5114	8127.326684495618	11
0	5116	8128.506041095261	12
0	5118	8128.980037225741	13
0	5120	8136.43114262937	14
0	5122	8136.966526472127	13
0	5125	8141.045177928275	14
0	5127	8151.754230846454	15
0	5129	8151.820142014416	14
0	5132	8154.121663433533	13
0	5135	8156.070041210482	14
0	5137	8156.167961555564	13
0	5140	8158.059489503796	12
0	5143	8160.883347917938	11
0	5146	8162.395546829909	10
0	5149	8165.658563265749	9
0	5152	8169.155155500878	8
0	5155	8171.680078367703	9
0	5157	8172.452082176311	10
0	5159	8173.278771027402	11
0	5161	8176.206753923513	10
0	5164	8182.732022778483	9
0	5167	8197.280767811635	8
0	5170	8197.456180975337	9
0	5172	8216.549026414499	8
0	5175	8217.43819622418	9
0	5177	8219.740182483606	8
0	5180	8226.445363257598	7
0	5183	8234.703528485394	6
0	5185	8235.981094996144	7
0	5188	8246.251953044851	6
0	5190	8247.576601815183	7
0	5193	8254.320508078391	6
0	5195	8260.318090132848	5
0	5197	8262.908363853589	4
0	5199	8265.236714769739	5
0	5202	8265.533772511333	6
0	5205	8265.844285992814	7
0	5208	8268.699720323004	8
0	5210	8274.54782631846	7
0	5213	8277.541715911664	8
0	5215	8287.305338525622	7
0	5218	8288.870489013507	8
0	5220	8291.338681852406	7
0	5223	8294.276550818371	6
0	5225	8297.873457937033	7
0	5228	8298.696618677942	6
0	5230	8307.976789069582	5
0	5232	8312.555377207397	6
0	5235	8314.784496331458	5
0	5237	8315.187335141985	4
0	5239	8318.287686556565	5
0	5242	8318.789264452743	4
0	5244	8324.414176581675	3
0	5246	8325.913232421075	2
0	5248	8337.274183113807	3
0	5251	8338.436333352818	4
0	5254	8341.66472257533	3
0	5256	8343.559348696634	4
0	5259	8356.14408091791	3
0	5261	8358.578938027771	4
0	5264	8374.987159523177	5
0	5267	8376.392010073267	6
0	5270	8380.103054208468	7
0	5273	8381.665506980998	6
0	5275	8383.843224014251	7
0	5278	8385.61688163848	8
0	5280	8386.420608420079	9
0	5282	8387.59578099058	8
0	5285	8389.495212179798	9
0	5287	8389.499795652465	8
0	5290	8393.341047327894	9
0	5292	8396.442434319114	8
0	5295	8410.902949963866	7
0	5298	8411.765103740491	8
0	5300	8412.681787368211	9
0	5302	8418.295684217331	8
0	5305	8421.733074002907	9
0	5307	8422.77936540816	8
0	5310	8426.840901311878	9
0	5312	8427.989692545842	8
0	5315	8436.11509101227	7
0	5318	8438.754807269742	6
0	5320	8440.65891561166	5
0	5322	8450.723013185691	4
0	5324	8452.994785421508	5
0	5327	8460.403844880599	4
0	5329	8462.503154955421	3
0	5331	8479.600834154358	4
0	5334	8488.430889883719	5
0	5337	8492.83243652159	6
0	5340	8492.932035249302	7
0	5343	8494.79128432151	6
0	5345	8494.833401411256	5
0	5347	8502.915624686785	6
0	5350	8505.579478600685	7
0	5353	8512.386770121455	8
0	5355	8516.437839577628	9
0	5357	8519.630219763727	10
0	5359	8523.47781069174	9
0	5362	8525.512945857043	10
0	5364	8531.300211487404	9
0	5367	8532.569679278654	10
0	5369	8534.24054965866	9
0	5372	8534.375878164596	10
0	5374	8535.318876188272	9
0	5377	8536.475324510707	10
0	5379	8538.268189349837	9
0	5382	8539.818840894887	8
0	5385	8540.503759662481	9
0	5387	8541.209414297391	10
0	5389	8541.845504260691	9
0	5392	8545.410668925611	8
0	5395	8547.677754019802	7
0	5398	8555.499893906654	6
0	5400	8558.439566058681	5
0	5402	8559.974855643735	4
0	5404	8563.051052397762	3
0	5406	8563.229204180361	2
0	5408	8569.38186820506	3
0	5411	8572.99648703025	4
0	5414	8575.892891849609	3
0	5416	8577.370781160041	4
0	5419	8578.493353157549	5
0	5422	8579.318942964102	4
0	5424	8581.230640213541	5
0	5427	8581.47506804045	6
0	5430	8583.697963866405	5
0	5432	8591.924281111097	6
0	5435	8594.815441191538	5
0	5437	8598.313516412196	6
0	5440	8598.428157323227	7
0	5443	8599.257048372945	6
0	5445	8599.297348243331	7
0	5448	8604.714053532777	6
0	5450	8606.540942816526	7
0	5453	8608.592686538561	8
0	5455	8610.447397692221	7
0	5458	8613.414675904374	8
0	5460	8618.198738605196	9
0	5462	8621.286714047233	10
0	5464	8634.390675869517	9
0	5467	8634.986379580923	8
0	5470	8636.204754165848	9
0	5472	8644.460315652643	10
0	5474	8666.103259665039	9
0	5477	8668.273710980082	10
0	5479	8670.16995454885	11
0	5481	8670.394914917334	12
0	5483	8672.595236453269	13
0	5485	8677.096379891849	12
0	5488	8679.23286067642	11
0	5491	8682.180932596764	12
0	5493	8694.715873826807	11
0	5496	8698.281573912114	10
0	5499	8702.435842357357	9
0	5502	8704.585841837756	8
0	5505	8711.883615457878	7
0	5508	8712.419729701364	6
0	5510	8717.566271544066	5
0	5512	8718.433687976076	6
0	5515	8722.631420359042	5
0	5517	8724.131945322806	4
0	5519	8725.012792346009	5
0	5522	8727.891000179876	4
0	5524	8728.667693973932	5
0	5527	8736.319439536244	4
0	5529	8738.491644722315	3
0	5531	8739.133484522348	2
0	5533	8775.164874303688	1
0	5535	8779.258676316547	2
0	5538	8782.075981084276	3
0	5541	8783.680809955434	2
0	5543	8787.386684502773	1
0	5545	8790.852113872234	2
0	5548	8796.012370230341	3
0	5551	8796.147737248989	4
0	5554	8799.482522930941	5
0	5557	8801.522300223001	4
0	5559	8806.702053781918	5
0	5562	8813.05658842994	4
0	5564	8824.369027964988	3
0	5566	8833.487028353019	2
0	5568	8838.049732482572	1
0	5570	8849.202890830123	0
0	5572	8850.953239582469	1
0	5575	8854.362242131389	2
0	5578	8864.092096058686	3
0	5581	8866.536089956712	4
0	5584	8871.834725579555	3
0	5586	8878.298759160703	4
0	5589	8885.552319707677	3
0	5591	8888.395926004947	4
0	5594	8889.662952115464	5
0	5597	8890.892428871749	6
0	5600	8897.759265292797	7
0	5603	8899.067225493036	6
0	5605	8904.55444629463	7
0	5608	8905.975779597328	6
0	5610	8913.909677811294	5
0	5612	8915.029601962642	4
0	5614	8926.645346317107	5
0	5617	8928.101584084559	6
0	5620	8931.537816541448	7
0	5623	8937.940675267598	8
0	5625	8939.368331030657	7
0	5628	8940.704667484161	8
0	5630	8947.499731120027	9
0	5632	8948.991603014521	8
0	5635	8949.103822525643	9
0	5637	8953.588788564651	10
0	5639	8955.222318389778	9
0	5642	8957.603443704999	10
0	5644	8961.394611415336	11
0	5646	8969.389317656693	12
0	5648	8972.970484008892	13
0	5650	8980.395818133792	12
0	5653	8986.225152128208	11
0	5656	8986.694448214697	12
0	5658	8993.974022425855	13
0	5660	8994.4802301239	12
0	5663	8995.068174860595	13
0	5665	8995.878376987789	14
0	5667	8999.162493199763	13
0	5670	9004.642769317255	12
0	5673	9005.685262648302	11
0	5676	9014.832287184267	12
0	5678	9016.33586229124	11
0	5681	9017.87438204496	12
0	5683	9019.944705289807	13
0	5685	9031.114287411546	12
0	5688	9031.79115793483	11
0	5691	9033.085700695449	10
0	5694	9033.112067198487	11
0	5696	9033.640089336155	10
0	5699	9037.502403265723	9
0	5702	9039.912488440916	10
0	5704	9042.052129501718	9
0	5707	9045.514760730594	8
0	5710	9048.721933954249	9
0	5712	9051.403103682357	10
0	5714	9055.957315084462	9
0	5717	9056.629942474593	8
0	5720	9059.615529239187	7
0	5723	9067.580546033571	8
0	5725	9067.833702138696	9
0	5727	9068.329954326383	10
0	5729	9070.660716930623	11
0	5731	9071.948195810708	12
0	5733	9072.349133398828	11
0	5736	9074.071523755873	10
0	5739	9082.579349595183	11
0	5741	9086.713320084217	10
0	5744	9086.858551416984	9
0	5747	9090.561866700661	8
0	5750	9090.861931123888	9
0	5752	9093.227215176171	10
0	5754	9093.785879053722	11
0	5756	9094.391809260293	12
0	5758	9098.430626408925	11
0	5761	9101.835124930269	10
0	5764	9104.013233855725	11
0	5766	9107.764566640875	10
0	5769	9107.783088471071	9
0	5772	9108.446898110835	8
0	5775	9108.504547078163	9
0	5777	9109.29465227947	8
0	5780	9110.302979525064	7
0	5783	9113.562006956953	6
0	5785	9114.937989324403	5
0	5787	9118.649546182936	4
0	5789	9126.843943291227	3
0	5791	9127.014150649804	4
0	5794	9129.625507375426	3
0	5796	9130.893179122833	4
0	5799	9138.990179330239	5
0	5802	9145.840114121378	6
0	5805	9147.756189454578	5
0	5807	9149.341833881826	4
0	5809	9152.320720963008	3
0	5811	9172.852133299345	4
0	5814	9177.585134968383	3
0	5816	9177.614544922324	4
0	5819	9181.332985715114	5
0	5822	9194.629009284791	4
0	5824	9197.241330716015	3
0	5826	9200.819246659468	4
0	5829	9202.324707685067	3
0	5831	9202.389681724225	2
0	5833	9211.227082474398	3
0	5836	9222.750424983249	4
0	5839	9223.914902082657	3
0	5841	9225.16471430493	4
0	5844	9226.837881963555	3
0	5846	9227.471295554737	4
0	5849	9230.707277904877	5
0	5852	9230.736390333903	4
0	5854	9230.813482506187	5
0	5857	9237.493786800505	6
0	5860	9242.191977982661	7
0	5863	9244.509609825265	6
0	5865	9247.110866463299	7
0	5868	9247.716045318926	8
0	5870	9248.93304721889	7
0	5873	9260.34984388186	8
0	5875	9268.107793022016	7
0	5878	9269.330232956535	6
0	5880	9269.376271630956	5
0	5882	9271.950900492546	4
0	5884	9278.190949803922	3
0	5886	9280.473306003664	4
0	5889	9282.551369176185	3
0	5891	9285.509471589344	4
0	5894	9293.224790376728	5
0	5897	9293.369672338769	6
0	5900	9300.229957838704	7
0	5903	9300.903253076449	6
0	5905	9302.246946422134	5
0	5907	9310.912835313891	6
0	5910	9314.539536454789	5
0	5912	9315.158333991685	6
0	5915	9315.357571217061	5
0	5917	9318.441447759696	4
0	5919	9319.320550379211	5
0	5922	9323.032113000718	6
0	5925	9325.182018343626	5
0	5927	9328.927446225554	6
0	5930	9332.459442936909	5
0	5932	9338.253598834238	6
0	5935	9342.307535261062	5
0	5937	9349.633901304554	6
0	5940	9352.029099128378	7
0	5943	9362.79714268348	6
0	5945	9363.033932258541	5
0	5947	9367.433856554638	6
0	5950	9378.067520644393	7
0	5953	9388.303422866997	8
0	5955	9391.635896300297	7
0	5958	9400.592380429146	8
0	5960	9403.23320802082	9
0	5962	9405.943562301097	8
0	5965	9407.015307035006	9
0	5967	9410.927987335305	8
0	5970	9412.708834102509	9
0	5972	9415.122310557102	10
0	5974	9422.61046762597	11
0	5976	9424.192130011874	12
0	5978	9429.741369891719	11
0	5981	9430.297574704039	10
0	5984	9433.017428643999	9
0	5987	9433.429124912988	8
0	5990	9435.938968603746	7
0	5993	9441.445846015031	6
0	5995	9442.596565556727	5
0	5997	9445.595104444893	4
0	5999	9446.955320764103	5
0	6002	9450.761482595135	4
0	6004	9451.813848436598	3
0	6006	9457.248815879115	4
0	6009	9479.890834250607	5
0	6012	9480.155371036865	4
0	6014	9480.359752457589	3
0	6016	9485.329989885658	4
0	6019	9498.382601981835	5
0	6022	9502.624665073628	6
0	6025	9502.916185444313	5
0	6027	9502.921195522871	6
0	6030	9506.429015584073	7
0	6033	9511.459763456699	6
0	6035	9512.50310776428	7
0	6038	9513.518852761683	6
0	6040	9514.632468345911	7
0	6043	9516.617815844091	6
0	6045	9517.073204686607	7
0	6048	9522.361168476875	6
0	6050	9525.487348980047	5
0	6052	9526.184129505847	4
0	6054	9530.244032018828	5
0	6057	9533.889278124494	4
0	6059	9534.468404108051	5
0	6062	9536.840381904759	4
0	6064	9538.933142233375	3
0	6066	9540.303609954616	2
0	6068	9543.580862605441	1
0	6070	9556.425810654182	2
0	6073	9569.699326711164	3
0	6076	9575.899063383066	2
0	6078	9579.497704894341	1
0	6080	9581.317880700503	2
0	6083	9588.113164549229	3
0	6086	9594.943873755146	2
0	6088	9595.506104106239	3
0	6091	9595.859716583676	4
0	6094	9613.708532029466	3
0	6096	9613.785441345135	4
0	6099	9616.589341620997	5
0	6102	9624.088235014421	4
0	6104	9634.585112041505	3
0	6106	9638.468104427696	4
0	6109	9638.567687833187	3
0	6111	9639.067385123533	2
0	6113	9640.208318889864	3
0	6116	9650.409477421757	2
0	6118	9656.354170386578	3
0	6121	9656.555030704746	2
0	6123	9668.193959288627	3
0	6126	9668.839215468164	4
0	6129	9669.899173859179	5
0	6132	9670.387396305381	6
0	6135	9673.497327033718	7
0	6138	9673.788922379947	6
0	6140	9674.002579484107	5
0	6142	9676.367404136893	6
0	6145	9684.772155978062	5
0	6147	9686.254392973941	4
0	6149	9687.311988911948	5
0	6152	9687.747068241342	6
0	6155	9691.507737747952	5
0	6157	9692.13745547388	6
0	6160	9694.524903725214	7
0	6163	9696.849535998716	6
0	6165	9702.042305388179	7
0	6168	9706.437238092659	6
0	6170	9708.465831411602	5
0	6172	9709.480820413358	4
0	6174	9714.503413919771	3
0	6176	9717.699839474663	4
0	6179	9718.842948363713	3
0	6181	9724.534279206682	4
0	6184	9725.757894607255	5
0	6187	9734.691852685392	6
0	6190	9747.030606000423	7
0	6193	9751.251825404606	6
0	6195	9751.938019205481	7
0	6198	9755.932528743376	8
0	6200	9757.036989856942	9
0	6202	9762.607760230314	8
0	6205	9765.884416218966	9
0	6207	9767.064634385579	8
0	6210	9769.351791743216	7
0	6213	9772.737572243801	6
0	6215	9781.343563722455	5
0	6217	9783.2676970782	6
0	6220	9784.338953661173	5
0	6222	9786.61468555325	4
0	6224	9787.952313601863	5
0	6227	9788.427877029804	4
0	6229	9796.133619875096	5
0	6232	9798.073792902329	6
0	6235	9804.345447226453	7
0	6238	9810.719271346337	6
0	6240	9814.7527230736	7
0	6243	9817.110290527522	6
0	6245	9818.33981810644	5
0	6247	9826.335341929771	4
0	6249	9830.017540387951	5
0	6252	9830.360658913206	4
0	6254	9832.71002039979	3
0	6256	9833.982945698854	2
0	6258	9834.08236868658	3
0	6261	9858.473584129332	4
0	6264	9863.395917678697	3
0	6266	9865.246213336748	2
0	6268	9874.771889464636	3
0	6271	9876.862862266901	4
0	6274	9884.178351142062	5
0	6277	9884.213427588263	6
0	6280	9885.446048593333	7
0	6283	9889.261742598493	6
0	6285	9891.231490108464	5
0	6287	9892.263438220773	4
0	6289	9892.704833454504	3
0	6291	9899.105924010969	4
0	6294	9900.366418553495	5
0	6297	9904.930812289743	6
0	6300	9908.681700861013	5
0	6302	9910.768013545659	6
0	6305	9916.399304972855	7
0	6308	9918.500337821826	6
0	6310	9921.081613894789	7
0	6313	9923.249176322848	6
0	6315	9923.870346744339	5
0	6317	9924.033819534202	4
0	6319	9926.747630237467	5
0	6322	9928.725784443101	6
0	6325	9931.396490819561	5
0	6327	9939.684019798388	6
0	6330	9940.774108071596	7
0	6333	9944.880328222039	8
0	6335	9945.389476351745	9
0	6337	9950.92042301092	10
0	6339	9955.353548774109	9
0	6342	9961.17575567702	8
0	6345	9965.362350256566	7
0	6348	9970.085355402106	6
0	6350	9971.491847960011	5
0	6352	9974.669983095892	6
0	6355	9979.156330298862	7
0	6358	9980.204334373224	6
0	6360	9984.756700043502	7
0	6363	9985.041214249156	6
0	6365	9993.324575584208	5
0	6367	9997.213413439168	6
0	6370	10008.38509195039	7
0	6373	10011.498978851793	8
0	6375	10012.243827488411	7
0	6378	10012.38441164204	8
0	6380	10012.50581384353	7
0	6383	10014.257495686903	6
0	6385	10017.926608152353	5
0	6387	10018.797349491588	4
0	6389	10034.704080341325	5
0	6392	10042.203935283416	6
0	6395	10043.350680186944	5
0	6397	10045.682123611034	6
0	6400	10047.398601088429	7
0	6403	10047.66388822737	6
0	6405	10048.6475186996	7
0	6408	10049.625473928983	8
0	6410	10050.513827848154	9
0	6412	10054.937201559269	8
0	6415	10055.514907731441	7
0	6418	10060.589724671092	6
0	6420	10061.571932536173	5
0	6422	10062.343652018641	4
0	6424	10064.879794393474	5
0	6427	10065.621723631643	6
0	6430	10066.711115546956	7
0	6433	10079.300699613407	6
0	6435	10080.856798772613	5
0	6437	10085.034644095922	4
0	6439	10087.335691203249	5
0	6442	10089.994912367387	4
0	6444	10100.348532307017	3
0	6446	10102.985313753327	2
0	6448	10104.900332057205	3
0	6451	10105.690874066783	2
0	6453	10111.244671539494	3
0	6456	10119.620411798941	4
0	6459	10126.231049500624	5
0	6462	10131.279157660721	6
0	6465	10132.66496524961	5
0	6467	10138.120319773863	4
0	6469	10142.349839762563	5
0	6472	10147.63101136222	6
0	6475	10153.207894074771	5
0	6477	10158.57915237472	6
0	6480	10160.999421354767	5
0	6482	10165.760550209743	6
0	6485	10171.100222095361	7
0	6488	10175.664743972909	6
0	6490	10180.801812265925	7
0	6493	10185.247314615138	6
0	6495	10185.652713801283	7
0	6498	10185.763191702704	6
0	6500	10187.875294927479	5
0	6502	10188.98132954558	6
0	6505	10190.450050120179	5
0	6507	10191.342533581926	6
0	6510	10192.626528815873	7
0	6513	10194.88298921536	8
0	6515	10197.586615859934	9
0	6517	10201.863265063637	10
0	6519	10204.111062806411	11
0	6521	10214.063015007376	10
0	6524	10215.47977681549	11
0	6526	10215.573315793323	10
0	6529	10225.17399246143	11
0	6531	10226.268784198554	10
0	6534	10227.037866312465	9
0	6537	10231.660005253654	10
0	6539	10234.462653852099	11
0	6541	10239.106580562094	12
0	6543	10244.259467684655	13
0	6545	10249.650324804036	12
0	6548	10250.913041276407	13
0	6550	10252.072644988472	14
0	6552	10257.364380656556	15
0	6554	10258.673348721854	14
0	6557	10266.266239874504	15
0	6559	10269.757952652912	16
0	6561	10275.708956970353	17
0	6563	10278.247461233912	16
0	6566	10285.866399099042	15
0	6569	10291.237406701759	16
0	6571	10297.236550366002	17
0	6573	10297.909014998058	16
0	6576	10298.05737996211	15
0	6579	10301.497564252509	14
0	6582	10309.512952265612	13
0	6585	10312.832583840775	14
0	6587	10316.781764808964	13
0	6590	10322.223616334687	12
0	6593	10324.498261573673	11
0	6596	10327.103409713343	12
0	6598	10330.414001328255	13
0	6600	10334.884618079995	12
0	6603	10338.177837194045	13
0	6605	10340.867295515475	12
0	6608	10342.175459911088	13
0	6610	10346.718826496972	14
0	6612	10350.265827001009	13
0	6615	10350.513157835918	12
0	6618	10351.794442565806	13
0	6620	10352.322837583508	12
0	6623	10352.991853300199	11
0	6626	10355.218383517721	12
0	6628	10355.379011157759	13
0	6630	10356.17135277557	12
0	6633	10361.074211561849	13
0	6635	10365.835615565401	14
0	6637	10367.701766123997	15
0	6639	10371.565604294512	14
0	6642	10373.384952774557	13
0	6645	10382.034900083015	14
0	6647	10382.477100679133	13
0	6650	10382.741687390469	12
0	6653	10383.04021491184	11
0	6656	10387.015995628492	12
0	6658	10388.747026016609	11
0	6661	10394.752776153408	12
0	6663	10394.943802452559	13
0	6665	10406.355733782464	14
0	6667	10406.81711340004	15
0	6669	10413.241410932318	14
0	6672	10418.762097073436	13
0	6675	10419.233276931917	14
0	6677	10420.129017669198	13
0	6680	10424.30645332033	12
0	6683	10429.221021786408	11
0	6686	10430.662394493366	12
0	6688	10438.576784095409	11
0	6691	10439.783313951753	12
0	6693	10440.836642571538	11
0	6696	10447.518710907601	12
0	6698	10447.721239796949	11
0	6701	10448.226679886763	10
0	6704	10450.853533177549	9
0	6707	10457.758438304441	8
0	6710	10461.216508294475	7
0	6713	10465.981537579514	6
0	6715	10468.140992804442	5
0	6717	10468.392993861192	6
0	6720	10469.043856664382	7
0	6723	10471.257595274198	6
0	6725	10474.097824552934	5
0	6727	10480.618638556876	6
0	6730	10481.592011088961	7
0	6733	10482.453850950211	6
0	6735	10483.847891094837	7
0	6738	10484.503649501285	6
0	6740	10487.046648170223	5
0	6742	10488.833817776109	6
0	6745	10499.380186879483	5
0	6747	10499.612281272056	4
0	6749	10499.881217593606	3
0	6751	10501.079747745709	2
0	6753	10508.407285008144	1
0	6755	10515.317244618503	2
0	6758	10523.691476354207	3
0	6761	10533.917722600866	4
0	6764	10538.082370308254	3
0	6766	10540.452579163127	4
0	6769	10542.743286120367	5
0	6772	10546.480655064672	6
0	6775	10550.168421721609	5
0	6777	10553.837167349717	4
0	6779	10555.679922210688	5
0	6782	10561.149801961204	4
0	6784	10564.058700501798	3
0	6786	10567.900398274508	2
0	6788	10583.583582632562	3
0	6791	10584.410872752142	4
0	6794	10588.996906794365	3
0	6796	10592.829887455938	2
0	6798	10606.197976335726	1
0	6800	10620.709607711177	2
0	6803	10623.152547688434	3
0	6806	10635.669915308681	2
0	6808	10638.065005107851	3
0	6811	10642.014422207204	2
0	6813	10646.711523278839	1
0	6815	10646.936358435966	2
0	6818	10648.096298004545	3
0	6821	10650.328713764445	4
0	6824	10651.529122023318	5
0	6827	10653.659287898197	4
0	6829	10657.16716931193	5
0	6832	10658.850266200581	4
0	6834	10664.414267737596	5
0	6837	10664.667374257528	4
0	6839	10671.94633429474	3
0	6841	10679.583929133941	2
0	6843	10683.085646786766	1
0	6845	10687.228543528692	2
0	6848	10696.857223341079	3
0	6851	10703.714790385078	2
0	6853	10713.64385825033	3
0	6856	10715.997654453069	2
0	6858	10728.338666354387	3
0	6861	10731.22085116793	4
0	6864	10732.203497425555	3
0	6866	10736.582121758169	4
0	6869	10742.282891110017	5
0	6872	10748.247238361076	4
0	6874	10751.798448224902	3
0	6876	10751.915925730071	4
0	6879	10754.212180635563	3
0	6881	10754.355476326849	4
0	6884	10759.76456720635	3
0	6886	10767.955987411867	4
0	6889	10771.914369039454	5
0	6892	10777.469569973773	4
0	6894	10785.403524809321	5
0	6897	10786.491120027927	6
0	6900	10788.008040379654	7
0	6903	10791.239923160088	6
0	6905	10792.208513501312	7
0	6908	10796.854127396547	8
0	6910	10796.93628769538	9
0	6912	10799.437933692858	10
0	6914	10800.811537119552	9
0	6917	10801.139886022797	8
0	6920	10805.446267883619	7
0	6923	10813.75183551139	6
0	6925	10813.828869950141	5
0	6927	10814.120489642909	6
0	6930	10815.85905130482	5
0	6932	10823.196675457307	4
0	6934	10826.60963976475	5
0	6937	10826.691727856436	6
0	6940	10831.065697376587	5
0	6942	10834.507280098855	6
0	6945	10835.093292973822	5
0	6947	10835.919712663405	4
0	6949	10836.819998763507	5
0	6952	10843.750416262278	6
0	6955	10845.178693196711	7
0	6958	10845.701177930989	6
0	6960	10858.342509191773	7
0	6963	10862.883499649677	8
0	6965	10864.373469257653	9
0	6967	10890.078329889392	8
0	6970	10892.477907945566	7
0	6973	10892.602387746787	8
0	6975	10895.187215599778	9
0	6977	10895.908227089983	8
0	6980	10902.587635712112	9
0	6982	10906.899578090262	10
0	6984	10908.725452197556	11
0	6986	10916.732081255817	10
0	6989	10930.596716172306	11
0	6991	10931.013436890763	10
0	6994	10937.642500453691	9
0	6997	10948.124063620711	8
0	7000	10956.941690420701	9
0	7002	10958.901134529641	10
0	7004	10959.239718617488	9
0	7007	10969.270471266737	10
0	7009	10972.148127515667	9
0	7012	10978.863390480345	10
0	7014	10979.513294159253	11
0	7016	10985.544165065573	12
0	7018	10988.140619687997	13
0	7020	10988.284147857992	12
0	7023	10989.191501631136	13
0	7025	10993.342930141316	12
0	7028	10994.480772973237	13
0	7030	10995.165417663289	12
0	7033	10997.352084240064	13
0	7035	11006.07757706818	14
0	7037	11010.503047926979	13
0	7040	11011.882494678973	12
0	7043	11015.626046014619	11
0	7046	11017.933098733011	10
0	7049	11019.400500445302	9
0	7052	11021.354759586434	10
0	7054	11022.621858631496	9
0	7057	11023.439386555439	8
0	7060	11023.66882336764	7
0	7063	11028.243378489698	8
0	7065	11033.018011824467	7
0	7068	11034.224367337088	6
0	7070	11039.184284517503	7
0	7073	11041.528516973575	6
0	7075	11041.688333323893	7
0	7078	11047.744830329053	6
0	7080	11048.016893647215	7
0	7083	11059.580345284457	8
0	7085	11060.122560019915	9
0	7087	11069.349140470979	8
0	7090	11073.197503969785	9
0	7092	11074.490912314348	10
0	7094	11075.080520285939	11
0	7096	11076.464410783479	10
0	7099	11079.319804465211	11
0	7101	11081.038540793038	10
0	7104	11082.920921006522	11
0	7106	11083.792501091165	12
0	7108	11087.377723291703	13
0	7110	11091.858042363626	14
0	7112	11096.622959457416	15
0	7114	11104.709558416878	14
0	7117	11106.020647619716	13
0	7120	11107.546232754767	14
0	7122	11111.249195067292	15
0	7124	11111.332050188304	14
0	7127	11123.004672802542	13
0	7130	11128.875320432762	12
0	7133	11129.705898570571	11
0	7136	11131.203689835486	10
0	7139	11137.179915556036	9
0	7142	11139.372663588909	10
0	7144	11145.148106804236	11
0	7146	11145.524867776941	10
0	7149	11147.728556083266	11
0	7151	11148.376005584659	10
0	7154	11149.948099801451	9
0	7157	11150.727536510614	8
0	7160	11151.804972986555	7
0	7163	11153.634021598613	6
0	7165	11156.535998065132	7
0	7168	11157.623363188494	6
0	7170	11157.772826465969	7
0	7173	11160.889478289333	6
0	7175	11165.791266816998	5
0	7177	11168.059108647209	4
0	7179	11172.653925238692	3
0	7181	11175.099957120256	2
0	7183	11184.035627634513	3
0	7186	11194.973849048333	2
0	7188	11196.790595027266	3
0	7191	11198.425864182612	4
0	7194	11203.428279504404	5
0	7197	11211.091637317816	4
0	7199	11216.749250212191	5
0	7202	11216.987374080195	6
0	7205	11219.797737023402	7
0	7208	11224.489850821062	6
0	7210	11225.734401694168	5
0	7212	11231.173450987831	6
0	7215	11235.569962652563	7
0	7218	11237.128774297434	6
0	7220	11238.452926810195	5
0	7222	11245.746662715389	4
0	7224	11252.194129397616	3
0	7226	11254.954784199891	2
0	7228	11257.055828321692	3
0	7231	11259.37342919626	4
0	7234	11261.157122803185	5
0	7237	11261.945607128523	4
0	7239	11264.148701887565	5
0	7242	11267.204480877668	4
0	7244	11270.056766988592	3
0	7246	11272.044585539703	2
0	7248	11283.087045788541	3
0	7251	11299.638428816751	4
0	7254	11300.982391263384	5
0	7257	11301.886041640457	4
0	7259	11302.168520530611	5
0	7262	11304.588082368229	4
0	7264	11306.646108484653	3
0	7266	11308.129500264615	4
0	7269	11309.799382257441	5
0	7272	11311.562627122352	4
0	7274	11315.094666446958	5
0	7277	11323.259335671527	6
0	7280	11323.621145517784	7
0	7283	11324.913268901457	8
0	7285	11328.942409966778	9
0	7287	11329.448040538447	8
0	7290	11330.633107274758	7
0	7293	11331.362179558997	8
0	7295	11334.148406858818	9
0	7297	11334.275427057144	10
0	7299	11340.986133263147	9
0	7302	11343.236271456141	8
0	7305	11359.655051677853	7
0	7308	11363.490361401982	6
0	7310	11367.187316249537	5
0	7312	11368.201067356175	4
0	7314	11372.039197935781	5
0	7317	11372.976275346719	6
0	7320	11375.164110353381	7
0	7323	11375.649836293855	6
0	7325	11377.358359596028	5
0	7327	11383.806598182839	4
0	7329	11388.806850093229	3
0	7331	11405.481640846668	4
0	7334	11405.691415584776	3
0	7336	11412.519006294566	2
0	7338	11432.472347056587	1
0	7340	11441.838685849631	2
0	7343	11442.283047256175	1
0	7345	11461.853178191625	2
0	7348	11494.664132931184	3
0	7351	11513.287066910075	2
0	7353	11516.909111609443	1
0	7355	11527.789293674704	2
0	7358	11531.092387514618	1
0	7360	11543.193950692614	2
0	7363	11561.93119997113	1
0	7365	11576.758754976744	2
0	7368	11594.078356132645	1
0	7370	11610.384143488961	2
0	7373	11610.443756185629	1
0	7375	11623.187190316438	2
0	7378	11623.478759495977	1
0	7380	11628.114931509074	2
0	7383	11628.693380520227	3
0	7386	11641.984077758056	4
0	7389	11642.605320773906	5
0	7392	11645.871462789863	6
0	7395	11646.449754008536	5
0	7397	11647.797915698952	6
0	7400	11654.112618866187	7
0	7403	11656.001183729993	6
0	7405	11662.516833385271	7
0	7408	11666.761520201516	6
0	7410	11666.887971586623	5
0	7412	11681.565333191141	6
0	7415	11683.044563828975	5
0	7417	11684.673928630243	6
0	7420	11688.930649716183	5
0	7422	11695.462532809884	4
0	7424	11703.069631864533	5
0	7427	11717.247624156171	4
0	7429	11717.445015811628	3
0	7431	11719.285709992557	4
0	7434	11722.095242583263	5
0	7437	11722.183908478487	6
0	7440	11722.670580782276	7
0	7443	11724.09420954959	6
0	7445	11726.112912627529	7
0	7448	11727.631162585717	8
0	7450	11728.767287886922	9
0	7452	11739.524556109492	8
0	7455	11742.006878057321	9
0	7457	11747.313748168807	8
0	7460	11748.124941649313	7
0	7463	11748.846779530831	6
0	7465	11749.935687489012	5
0	7467	11750.008893962297	4
0	7469	11752.406443952792	3
0	7471	11756.129219501915	4
0	7474	11763.807804088466	5
0	7477	11771.642568248784	4
0	7479	11772.44068263174	3
0	7481	11779.841446028198	4
0	7484	11784.718763748446	5
0	7487	11788.706107711309	4
0	7489	11792.343295526417	3
0	7491	11796.47089572798	4
0	7494	11797.851796695869	3
0	7496	11802.030050022691	2
0	7498	11810.717224460878	3
0	7501	11811.23572257387	4
0	7504	11812.924307094046	3
0	7506	11832.422155160953	4
0	7509	11834.509891845785	5
0	7512	11836.936596222734	6
0	7515	11842.548892563492	7
0	7518	11848.376699840849	8
0	7520	11848.567882077234	9
0	7522	11854.60441524569	8
0	7525	11855.070038396259	9
0	7527	11857.496598250702	10
0	7529	11857.676446861893	9
0	7532	11865.446782741717	8
0	7535	11865.603548213279	7
0	7538	11868.120855255024	8
0	7540	11872.391901811365	9
0	7542	11883.320066628471	8
0	7545	11886.861625307428	9
0	7547	11888.53844034316	8
0	7550	11889.374223641998	7
0	7553	11892.125947656061	6
0	7555	11892.665210503461	5
0	7557	11895.049994056108	4
0	7559	11900.083355008426	5
0	7562	11901.867798779707	4
0	7564	11904.214446382005	5
0	7567	11919.54559367395	4
0	7569	11922.617547404975	3
0	7571	11923.144945214255	4
0	7574	11927.509226200463	5
0	7577	11928.505295555827	6
0	7580	11928.936839838995	7
0	7583	11936.374659185919	6
0	7585	11936.498831518536	5
0	7587	11937.370243976133	6
0	7590	11938.205249980219	7
0	7593	11938.585050348696	8
0	7595	11946.394666149962	7
0	7598	11946.633873001123	6
0	7600	11948.669201740653	7
0	7603	11950.816489809776	8
0	7605	11952.767750064966	7
0	7608	11952.99931966044	6
0	7610	11956.16202615501	7
0	7613	11957.909076761089	8
0	7615	11958.105306121712	7
0	7618	11963.343814779709	8
0	7620	11964.222910286268	9
0	7622	11964.328079134171	8
0	7625	11965.380033662025	9
0	7627	11967.030214780045	8
0	7630	11975.745903075177	7
0	7633	11983.371645219605	8
0	7635	11985.042962768154	7
0	7638	11986.127441333648	6
0	7640	11993.619990020811	5
0	7642	11995.041331780601	6
0	7645	11997.956940770778	5
0	7647	11998.819611005058	4
0	7649	12001.238722476706	5
0	7652	12001.645754595215	4
0	7654	12008.945618866498	3
0	7656	12015.21014351264	4
0	7659	12017.078139725695	3
0	7661	12018.246453472874	2
0	7663	12020.930845370697	1
0	7665	12021.036882975225	2
0	7668	12021.116536599697	1
0	7670	12022.439493014097	2
0	7673	12026.590832102045	3
0	7676	12029.850040510794	4
0	7679	12035.089455617801	5
0	7682	12042.767614651583	4
0	7684	12046.081675545529	3
0	7686	12049.136604980226	2
0	7688	12061.115723284102	3
0	7691	12063.302177752694	4
0	7694	12065.189881332711	5
0	7697	12070.56167661526	4
0	7699	12071.804788254219	5
0	7702	12079.968459747831	6
0	7705	12081.304247911701	7
0	7708	12086.17377028572	8
0	7710	12094.165885405371	9
0	7712	12095.452512213328	10
0	7714	12096.842687316122	9
0	7717	12099.412730898862	8
0	7720	12099.521309745709	7
0	7723	12102.409002729832	8
0	7725	12111.555881662224	9
0	7727	12112.126127003196	8
0	7730	12117.25100002368	7
0	7733	12117.626016859747	6
0	7735	12123.628379996594	5
0	7737	12129.070113742586	4
0	7739	12137.729082073318	3
0	7741	12138.374759184657	4
0	7744	12141.336946647633	5
0	7747	12142.352990491222	4
0	7749	12143.15460029064	5
0	7752	12145.594702704797	6
0	7755	12147.11811647082	7
0	7758	12149.221558677024	8
0	7760	12163.199837605584	9
0	7762	12163.314282436901	10
0	7764	12168.296847542293	9
0	7767	12171.314197212157	10
0	7769	12171.35854765545	9
0	7772	12173.553748444734	8
0	7775	12174.789356311044	7
0	7778	12175.4410810399	8
0	7780	12176.220222150565	7
0	7783	12179.617115462009	6
0	7785	12182.264878821054	5
0	7787	12185.159530072838	6
0	7790	12193.231589499885	7
0	7793	12193.469680828811	8
0	7795	12193.594992706681	7
0	7798	12194.446944484638	6
0	7800	12195.651574948778	7
0	7803	12197.206185547056	8
0	7805	12205.27828306184	9
0	7807	12206.716488721589	8
0	7810	12215.49904166082	7
0	7813	12215.688200496348	6
0	7815	12218.23309105578	5
0	7817	12218.904535821584	4
0	7819	12219.929330759602	3
0	7821	12220.076121348674	4
0	7824	12221.935339445831	3
0	7826	12226.233762334881	4
0	7829	12231.752048682413	3
0	7831	12231.925290219369	2
0	7833	12234.296467333363	3
0	7836	12236.753340609776	4
0	7839	12237.033147176009	5
0	7842	12240.639717341976	6
0	7845	12242.298839506954	5
0	7847	12243.507361780114	4
0	7849	12246.427442145925	5
0	7852	12252.915226619234	4
0	7854	12258.288675482333	5
0	7857	12263.839402376054	4
0	7859	12269.997061485662	5
0	7862	12270.547672045353	6
0	7865	12274.01417120539	7
0	7868	12274.128324859462	8
0	7870	12276.629204445464	9
0	7872	12281.605017304644	10
0	7874	12281.929484452399	11
0	7876	12282.26427277344	10
0	7879	12283.655739535516	11
0	7881	12286.378475993914	10
0	7884	12289.114544883492	9
0	7887	12290.073277898371	8
0	7890	12291.359228002217	9
0	7892	12295.929499553248	8
0	7895	12299.762642995174	7
0	7898	12305.96768115747	8
0	7900	12308.940494798174	7
0	7903	12316.823754611123	6
[...]
1	7389	11642.605320773906	0
1	7392	11645.871462789863	0
1	7395	11646.449754008536	0
1	7397	11647.797915698952	0
1	7400	11654.112618866187	0
1	7403	11656.001183729993	0
1	7405	11662.516833385271	0
1	7408	11666.761520201516	0
1	7410	11666.887971586623	0
1	7412	11681.565333191141	0
1	7415	11683.044563828975	0
1	7417	11684.673928630243	0
1	7420	11688.930649716183	0
1	7422	11695.462532809884	0
1	7424	11703.069631864533	0
1	7427	11717.247624156171	0
1	7429	11717.445015811628	0
1	7431	11719.285709992557	0
1	7434	11722.095242583263	0
1	7437	11722.183908478487	0
1	7440	11722.670580782276	0
1	7443	11724.09420954959	0
1	7445	11726.112912627529	0
1	7448	11727.631162585717	1
1	7450	11728.767287886922	2
1	7452	11739.524556109492	1
1	7455	11742.006878057321	2
1	7457	11747.313748168807	1
1	7460	11748.124941649313	0
1	7463	11748.846779530831	0
1	7465	11749.935687489012	0
1	7467	11750.008893962297	0
1	7469	11752.406443952792	0
1	7471	11756.129219501915	0
1	7474	11763.807804088466	0
1	7477	11771.642568248784	0
1	7479	11772.44068263174	0
1	7481	11779.841446028198	0
1	7484	11784.718763748446	0
1	7487	11788.706107711309	0
1	7489	11792.343295526417	0
1	7491	11796.47089572798	0
1	7494	11797.851796695869	0
1	7496	11802.030050022691	0
1	7498	11810.717224460878	0
1	7501	11811.23572257387	0
1	7504	11812.924307094046	0
1	7506	11832.422155160953	0
1	7509	11834.509891845785	0
1	7512	11836.936596222734	0
1	7515	11842.548892563492	0
1	7518	11848.376699840849	1
1	7520	11848.567882077234	2
1	7522	11854.60441524569	1
1	7525	11855.070038396259	2
1	7527	11857.496598250702	3
1	7529	11857.676446861893	2
1	7532	11865.446782741717	1
1	7535	11865.603548213279	0
1	7538	11868.120855255024	1
1	7540	11872.391901811365	2
1	7542	11883.320066628471	1
1	7545	11886.861625307428	2
1	7547	11888.53844034316	1
1	7550	11889.374223641998	0
1	7553	11892.125947656061	0
1	7555	11892.665210503461	0
1	7557	11895.049994056108	0
1	7559	11900.083355008426	0
1	7562	11901.867798779707	0
1	7564	11904.214446382005	0
1	7567	11919.54559367395	0
1	7569	11922.617547404975	0
1	7571	11923.144945214255	0
1	7574	11927.509226200463	0
1	7577	11928.505295555827	0
1	7580	11928.936839838995	0
1	7583	11936.374659185919	0
1	7585	11936.498831518536	0
1	7587	11937.370243976133	0
1	7590	11938.205249980219	0
1	7593	11938.585050348696	1
1	7595	11946.394666149962	0
1	7598	11946.633873001123	0
1	7600	11948.669201740653	0
1	7603	11950.816489809776	1
1	7605	11952.767750064966	0
1	7608	11952.99931966044	0
1	7610	11956.16202615501	0
1	7613	11957.909076761089	1
1	7615	11958.105306121712	0
1	7618	11963.343814779709	1
1	7620	11964.222910286268	2
1	7622	11964.328079134171	1
1	7625	11965.380033662025	2
1	7627	11967.030214780045	1
1	7630	11975.745903075177	0
1	7633	11983.371645219605	1
1	7635	11985.042962768154	0
1	7638	11986.127441333648	0
1	7640	11993.619990020811	0
1	7642	11995.041331780601	0
1	7645	11997.956940770778	0
1	7647	11998.819611005058	0
1	7649	12001.238722476706	0
1	7652	12001.645754595215	0
1	7654	12008.945618866498	0
1	7656	12015.21014351264	0
1	7659	12017.078139725695	0
1	7661	12018.246453472874	0
1	7663	12020.930845370697	0
1	7665	12021.036882975225	0
1	7668	12021.116536599697	0
1	7670	12022.439493014097	0
1	7673	12026.590832102045	0
1	7676	12029.850040510794	0
1	7679	12035.089455617801	0
1	7682	12042.767614651583	0
1	7684	12046.081675545529	0
1	7686	12049.136604980226	0
1	7688	12061.115723284102	0
1	7691	12063.302177752694	0
1	7694	12065.189881332711	0
1	7697	12070.56167661526	0
1	7699	12071.804788254219	0
1	7702	12079.968459747831	0
1	7705	12081.304247911701	0
1	7708	12086.17377028572	1
1	7710	12094.165885405371	2
1	7712	12095.452512213328	3
1	7714	12096.842687316122	2
1	7717	12099.412730898862	1
1	7720	12099.521309745709	0
1	7723	12102.409002729832	1
1	7725	12111.555881662224	2
1	7727	12112.126127003196	1
1	7730	12117.25100002368	0
1	7733	12117.626016859747	0
1	7735	12123.628379996594	0
1	7737	12129.070113742586	0
1	7739	12137.729082073318	0
1	7741	12138.374759184657	0
1	7744	12141.336946647633	0
1	7747	12142.352990491222	0
1	7749	12143.15460029064	0
1	7752	12145.594702704797	0
1	7755	12147.11811647082	0
1	7758	12149.221558677024	1
1	7760	12163.199837605584	2
1	7762	12163.314282436901	3
1	7764	12168.296847542293	2
1	7767	12171.314197212157	3
1	7769	12171.35854765545	2
1	7772	12173.553748444734	1
1	7775	12174.789356311044	0
1	7778	12175.4410810399	1
1	7780	12176.220222150565	0
1	7783	12179.617115462009	0
1	7785	12182.264878821054	0
1	7787	12185.159530072838	0
1	7790	12193.231589499885	0
1	7793	12193.469680828811	1
1	7795	12193.594992706681	0
1	7798	12194.446944484638	0
1	7800	12195.651574948778	0
1	7803	12197.206185547056	1
1	7805	12205.27828306184	2
1	7807	12206.716488721589	1
1	7810	12215.49904166082	0
1	7813	12215.688200496348	0
1	7815	12218.23309105578	0
1	7817	12218.904535821584	0
1	7819	12219.929330759602	0
1	7821	12220.076121348674	0
1	7824	12221.935339445831	0
1	7826	12226.233762334881	0
1	7829	12231.752048682413	0
1	7831	12231.925290219369	0
1	7833	12234.296467333363	0
1	7836	12236.753340609776	0
1	7839	12237.033147176009	0
1	7842	12240.639717341976	0
1	7845	12242.298839506954	0
1	7847	12243.507361780114	0
1	7849	12246.427442145925	0
1	7852	12252.915226619234	0
1	7854	12258.288675482333	0
1	7857	12263.839402376054	0
1	7859	12269.997061485662	0
1	7862	12270.547672045353	0
1	7865	12274.01417120539	0
1	7868	12274.128324859462	1
1	7870	12276.629204445464	2
1	7872	12281.605017304644	3
1	7874	12281.929484452399	4
1	7876	12282.26427277344	3
1	7879	12283.655739535516	4
1	7881	12286.378475993914	3
1	7884	12289.114544883492	2
1	7887	12290.073277898371	1
1	7890	12291.359228002217	2
1	7892	12295.929499553248	1
1	7895	12299.762642995174	0
1	7898	12305.96768115747	1
1	7900	12308.940494798174	0
1	7903	12316.823754611123	0
1	7905	12318.019605031003	0
1	7907	12322.427665269314	0
1	7910	12323.572995169178	0
1	7913	12325.785344872351	1
1	7915	12327.584036368738	0
1	7918	12328.378809942214	1
1	7920	12329.216212613194	2
1	7922	12330.96928532526	1
1	7925	12334.117828281546	0
1	7928	12334.377496394739	0
1	7930	12335.630416470742	0
1	7933	12337.437289235842	0
1	7935	12337.814519195842	0
1	7938	12339.829019782424	1
1	7940	12346.635882971163	2
1	7942	12349.934514500673	1
1	7945	12355.432301566514	0
1	7948	12359.591011741695	1
1	7950	12360.392363868414	0
1	7953	12366.871610375609	1
1	7955	12368.847708921946	2
1	7957	12370.014063081911	1
1	7960	12373.63704773869	0
1	7963	12373.902916522459	0
1	7965	12378.072183282792	0
1	7968	12378.289748819419	0
1	7970	12382.546227752215	0
1	7972	12393.497708786747	0
1	7974	12394.052534308926	0
1	7977	12401.031504674457	0
1	7980	12418.44242088345	0
1	7982	12419.855100783949	0
1	7985	12422.093921350704	0
1	7987	12424.188360270338	0
1	7990	12427.08971633367	0
1	7992	12433.264602075002	0
1	7994	12436.347675173279	0
1	7996	12443.132634522507	0
1	7998	12448.662239716639	0
1	8001	12449.546506831099	0
1	8003	12457.054418736542	0
1	8006	12460.548492545942	0
1	8008	12463.953335992151	0
1	8010	12472.883986129672	0
1	8013	12473.934802817971	0
1	8016	12483.6867727252	0
1	8018	12490.339401437337	0
1	8021	12492.132973117392	0
1	8024	12498.074882676201	0
1	8026	12505.673182526151	0
1	8028	12513.032961958917	0
1	8031	12518.480983838342	0
1	8034	12524.228023549424	0
1	8036	12533.18247910259	0
1	8038	12536.121221136647	0
1	8041	12537.911701587319	0
1	8044	12542.965697552878	0
1	8047	12546.886248668314	0
1	8049	12552.521809279115	0
1	8052	12554.001842855312	0
1	8054	12558.382157090774	0
1	8056	12560.777393122069	0
1	8058	12564.594311745935	0
1	8061	12569.545252962076	0
1	8064	12574.825978203354	0
1	8066	12578.24635493148	0
1	8068	12579.560123227639	0
1	8071	12583.302339934351	0
1	8074	12583.329797427218	0
1	8077	12592.319846044188	0
1	8080	12592.432989861122	0
1	8082	12594.603009957723	0
1	8084	12599.682666260977	0
1	8087	12606.011331210463	0
1	8089	12607.775657612406	0
1	8092	12612.564785979584	0
1	8095	12615.276153042372	0
1	8097	12615.822518423543	0
1	8099	12619.574302097675	0
1	8102	12620.39830214711	0
1	8105	12620.465151662291	0
1	8108	12625.625323942099	0
1	8110	12628.169399825211	0
1	8113	12629.622969110336	0
1	8115	12632.564637021401	0
1	8117	12641.830156569122	0
1	8120	12643.661795420175	0
1	8123	12643.789930100187	0
1	8125	12644.090047170075	0
1	8128	12644.716693414574	1
1	8130	12645.85185998318	2
1	8132	12646.921987185326	3
1	8134	12656.549599405119	4
1	8136	12662.619684517519	5
1	8138	12662.992475557899	4
1	8141	12666.092636996358	3
1	8144	12669.254886415523	2
1	8147	12673.746789971641	3
1	8149	12677.569601649285	2
1	8152	12677.961141566019	3
1	8154	12680.490158861948	4
1	8156	12681.975495306511	5
1	8158	12687.192725499482	4
1	8161	12687.612923786727	3
1	8164	12692.49092020367	4
1	8166	12695.420105798268	3
1	8169	12696.95214743225	2
1	8172	12698.419416959668	3
1	8174	12701.902710253121	4
1	8176	12701.943685634221	5
1	8178	12704.138918915591	6
1	8180	12704.486989891958	7
1	8182	12709.056826286886	6
1	8185	12711.885242852223	7
1	8187	12714.816544849623	8
1	8189	12723.969483820109	9
1	8191	12726.375455904466	8
1	8194	12727.714339601911	7
1	8197	12733.190711536026	6
1	8200	12736.407918447257	5
1	8203	12738.732356165266	4
1	8206	12741.038644288658	5
1	8208	12741.084674575597	4
1	8211	12745.287428514459	3
1	8214	12757.398036835763	2
1	8217	12767.718114440083	1
1	8220	12770.818978097763	2
1	8222	12772.398726697118	1
1	8225	12774.761072524562	0
1	8228	12781.868419961367	0
1	8230	12783.630223955946	0
1	8232	12786.150315826298	0
1	8235	12787.648286563247	0
1	8237	12798.839493240577	0
1	8239	12800.953713728606	0
1	8241	12801.317642956698	0
1	8244	12812.371405103077	0
1	8246	12817.956114070614	0
1	8249	12820.198517517406	0
1	8251	12820.32212804855	0
1	8254	12822.69858589573	0
1	8257	12828.216459630094	0
1	8259	12830.53691772592	0
1	8262	12831.512940181632	0
1	8264	12831.58099888046	0
1	8266	12838.571025438832	0
1	8268	12853.483735144976	0
1	8271	12854.521414198352	0
1	8274	12857.709608684931	0
1	8276	12864.511298389522	0
1	8279	12875.357357253382	0
1	8281	12876.350344211135	0
1	8284	12878.824305875987	0
1	8287	12895.245569311213	0
1	8289	12896.511258180646	0
1	8292	12898.177189195841	0
1	8294	12898.40549993213	0
1	8297	12912.245504126418	0
1	8299	12915.701519536158	0
1	8301	12926.013924975639	0
1	8304	12934.461595508803	0
1	8306	12937.589031862276	0
1	8308	12941.218063661422	0
1	8310	12944.902879102499	0
1	8312	12952.373612390813	0
1	8315	12952.945689806246	0
1	8318	12954.1932685761	0
1	8321	12962.03621453884	0
1	8324	12970.545707636092	0
1	8326	12972.480478685797	0
1	8328	12973.334943567966	0
1	8331	12977.682382695778	0
1	8333	12987.094179391753	0
1	8336	12996.169283596731	0
1	8339	13006.988292912394	0
1	8342	13008.77258733591	0
1	8345	13009.63105544279	0
1	8348	13021.001258209553	0
1	8350	13021.18922807164	0
1	8353	13023.285857038378	0
1	8355	13026.476191829687	0
1	8357	13026.538817887971	0
1	8360	13031.515090752367	0
1	8362	13032.555522548253	0
1	8365	13032.643244618	0
1	8368	13033.110819498805	1
1	8370	13044.715841119741	0
1	8373	13057.369050118573	0
1	8375	13060.44805828208	0
1	8378	13069.691777905805	1
1	8380	13070.825214026221	2
1	8382	13076.036683461932	3
1	8384	13081.043157381706	2
1	8387	13084.658710050517	3
1	8389	13086.472970992031	2
1	8392	13086.945433485481	1
1	8395	13087.479803714439	2
1	8397	13090.789877367361	1
1	8400	13095.073163834197	0
1	8403	13099.10813022836	0
1	8405	13099.672636890641	0
1	8408	13100.467502325282	1
1	8410	13101.266891341996	2
1	8412	13105.151707959589	3
1	8414	13105.342730319429	4
1	8416	13106.519412661883	5
1	8418	13108.739173212732	4
1	8421	13109.051206695994	3
1	8424	13111.760573861035	4
1	8426	13130.493549484933	3
1	8429	13131.053519002697	4
1	8431	13132.04715636471	3
1	8434	13139.812929602154	4
1	8436	13141.093160356242	3
1	8439	13141.871342900962	4
1	8441	13144.901145327382	5
1	8443	13150.635522640105	4
1	8446	13152.444697891724	3
1	8449	13153.414950814538	2
1	8452	13154.234345805364	1
1	8455	13156.7522195778	0
1	8458	13160.926576249954	0
1	8460	13162.3439957892	0
1	8462	13177.404748161323	0
1	8464	13180.213652769571	0
1	8467	13181.111910880428	0
1	8469	13185.399243957575	0
1	8471	13201.216839588089	0
1	8473	13211.263130414135	0
1	8476	13212.461930010883	0
1	8479	13219.605797145821	0
1	8482	13223.95913808875	0
1	8485	13225.500273987055	0
1	8487	13226.23488503947	0
1	8490	13226.53389682307	0
1	8493	13228.017668935733	0
1	8495	13232.711172998649	0
1	8497	13233.187149594147	0
1	8500	13244.809102823796	0
1	8502	13255.563341694696	0
1	8504	13258.431743781876	0
1	8507	13258.574418775019	0
1	8510	13262.838164457467	0
1	8512	13266.48547858919	0
1	8515	13269.822879623973	0
1	8518	13283.099766568929	1
1	8520	13295.362428218703	2
1	8522	13296.16428173122	3
1	8524	13299.708671013628	2
1	8527	13301.230015912615	1
1	8530	13301.266757648414	2
1	8532	13303.129620724138	3
1	8534	13303.914900914945	2
1	8537	13305.174386660974	1
1	8540	13313.086586515959	2
1	8542	13318.560502814381	1
1	8545	13319.742023200552	2
1	8547	13320.265962242438	1
1	8550	13322.455963930945	0
1	8553	13323.221339626993	0
1	8555	13330.211935115638	0
1	8558	13336.881523571045	1
1	8560	13337.150055528778	0
1	8563	13337.58469510304	0
1	8565	13340.617396870698	0
1	8567	13343.286379967621	0
1	8569	13347.201640088608	0
1	8571	13348.371470974969	0
1	8574	13352.865270491752	0
1	8577	13354.119271257384	0
1	8579	13360.686556006356	0
1	8581	13371.281818490279	0
1	8584	13373.898698966381	0
1	8587	13376.03207099187	0
1	8590	13376.697226492689	0
1	8592	13379.231409617116	0
1	8594	13393.330790296561	0
1	8597	13393.582268449149	0
1	8600	13399.512958652456	0
1	8602	13399.807185606527	0
1	8605	13401.942829771197	0
1	8608	13402.012084104596	1
1	8610	13403.164468782553	2
1	8612	13403.267672329639	3
1	8614	13405.450874128971	4
1	8616	13412.15495782188	3
1	8619	13415.88714927664	2
1	8622	13419.824918370112	1
1	8625	13422.078345584312	2
1	8627	13425.505033225102	1
1	8630	13426.2462285526	0
1	8633	13427.94557271614	0
1	8635	13429.679378692562	0
1	8637	13431.226283542795	0
1	8639	13431.433925147961	0
1	8642	13433.740377597609	0
1	8645	13438.718384907888	0
1	8648	13440.741283362304	0
1	8650	13440.806806617665	0
1	8652	13447.255877309696	0
1	8655	13447.723811904205	0
1	8658	13448.83108947255	0
1	8660	13450.259544541806	0
1	8662	13450.445342464953	0
1	8664	13466.969004320058	0
1	8667	13467.784439010782	0
1	8669	13473.429466243116	0
1	8672	13474.850040370802	0
1	8674	13474.963137528429	0
1	8677	13475.595516982397	0
1	8679	13482.335360038544	0
1	8681	13483.176600545374	0
1	8684	13494.348588078981	0
1	8687	13495.09708277203	0
1	8690	13508.757304830727	0
1	8692	13509.975221998999	0
1	8694	13511.708671892634	0
1	8696	13519.478330577879	0
1	8699	13526.226333862104	0
1	8701	13538.862937644281	0
1	8703	13539.283016532911	0
1	8705	13553.26507617506	0
1	8708	13556.964262401576	0
1	8711	13567.635278058253	0
1	8714	13572.934837711664	0
1	8716	13581.743012577918	0
1	8718	13582.787454205015	0
1	8720	13585.153335644314	0
1	8723	13587.53749190649	0
1	8726	13603.70814556109	0
1	8729	13607.433665249036	0
1	8731	13608.283299022081	0
1	8733	13611.675166064585	0
1	8736	13614.228838785344	0
1	8739	13618.181673266514	0
1	8742	13618.654978648683	0
1	8744	13619.863645987462	0
1	8747	13626.604581704036	0
1	8750	13632.14545185826	0
1	8752	13632.271863951581	0
1	8755	13634.453092968046	0
1	8757	13634.598849932927	0
1	8759	13638.812716683853	0
1	8761	13648.27966728076	0
1	8763	13652.02307363332	0
1	8766	13659.337361827345	0
1	8768	13673.727553879317	0
1	8771	13676.466473230776	0
1	8773	13683.678607648656	0
1	8776	13686.545829850933	0
1	8779	13686.627464870349	0
1	8782	13687.944646337476	0
1	8784	13690.006097894042	0
1	8787	13690.729942835593	0
1	8790	13691.761412153704	0
1	8792	13699.665582984348	0
1	8794	13710.764297348173	0
1	8797	13718.835141514118	0
1	8799	13724.440520847671	0
1	8802	13732.060125384948	0
1	8805	13732.883689853445	0
1	8807	13739.942628784243	0
1	8809	13740.189078801953	0
1	8812	13751.430843262443	0
1	8814	13755.971276168669	0
1	8817	13756.067818964046	0
1	8819	13756.7519979353	0
1	8821	13763.201731662131	0
1	8824	13770.073582188611	0
1	8827	13774.139992520038	0
1	8830	13778.915170739499	0
1	8832	13779.413328804312	0
1	8835	13783.64987967735	0
1	8838	13788.757920759656	1
1	8840	13789.376653731933	2
1	8842	13791.820210556212	3
1	8844	13792.299992933736	4
1	8846	13793.373652852952	5
1	8848	13795.11532864173	4
1	8851	13795.128390188971	3
1	8854	13797.986423377896	2
1	8857	13798.364326557615	3
1	8859	13800.686711888516	4
1	8861	13805.061118307865	3
1	8864	13808.491255223387	2
1	8867	13811.312244165546	1
1	8870	13816.147941360724	0
1	8873	13819.217875385368	0
1	8875	13823.470084944737	0
1	8878	13825.358273206837	0
1	8880	13826.574353335273	0
1	8883	13832.222318387205	0
1	8885	13833.880602349129	0
1	8888	13837.692588990555	0
1	8890	13838.680663558289	0
1	8892	13840.868612753539	0
1	8894	13841.493894306525	0
1	8897	13849.628959794375	0
1	8900	13854.562673429007	0
1	8902	13858.261558290007	0
1	8904	13867.187296513666	0
1	8906	13892.959176131969	0
1	8909	13904.175824314422	0
1	8911	13905.901270113249	0
1	8914	13906.356129341462	0
1	8916	13921.344632208554	0
1	8918	13925.053197798693	0
1	8921	13927.217784277705	0
1	8924	13928.722766667844	0
1	8926	13939.009535323923	0
1	8928	13942.617314249485	0
1	8931	13952.805388260018	0
1	8933	13954.939414577796	0
1	8936	13955.564282165372	0
1	8938	13957.548674706453	0
1	8940	13962.719347358518	0
1	8943	13976.236898548767	0
1	8946	13984.033652967963	0
1	8949	13989.108225126221	0
1	8952	13989.890635688935	0
1	8954	13993.173314933293	0
1	8957	14003.215013328654	0
1	8960	14003.378269750925	0
1	8963	14003.919760749406	0
1	8965	14006.867257366378	0
1	8967	14010.569971100225	0
1	8969	14027.977840181725	0
1	8972	14029.823479017199	0
1	8975	14035.754257814555	0
1	8977	14036.314514577436	0
1	8980	14042.564984172345	0
1	8983	14046.273142631169	0
1	8985	14047.123546370834	0
1	8987	14049.733763451724	0
1	8990	14050.57324318489	0
1	8992	14053.808141206232	0
1	8994	14056.072051530373	0
1	8996	14056.527836357141	0
1	8999	14058.544121780076	0
1	9001	14066.834416595982	0
1	9004	14069.326833229335	0
1	9006	14073.686034150866	0
1	9008	14074.540962324925	0
1	9011	14082.662731893781	0
1	9014	14082.895158119749	0
1	9017	14091.357985220987	0
1	9020	14094.678205639691	0
1	9022	14100.345862230896	0
1	9025	14101.714841338249	0
1	9027	14106.4435993463	0
1	9029	14107.957917289822	0
1	9031	14112.87040342053	0
1	9033	14118.786585826601	0
1	9036	14124.254128145809	0
1	9039	14125.648700596021	0
1	9042	14139.395104340487	0
1	9044	14150.65578155366	0
1	9047	14151.692751891895	0
1	9050	14154.378764811942	0
1	9052	14156.786883553992	0
1	9054	14157.092224777616	0
1	9056	14164.994748236336	0
1	9058	14166.765563386183	0
1	9061	14169.253265234271	0
1	9063	14179.154541711422	0
1	9066	14181.249430938217	0
1	9068	14185.932186056281	0
1	9071	14190.269328589063	0
1	9074	14190.580711969162	0
1	9077	14192.003657960382	0
1	9079	14193.142370545437	0
1	9081	14195.878035043705	0
1	9084	14199.764410249637	0
1	9087	14208.913587891189	0
1	9089	14212.385755913719	0
1	9092	14218.616100385195	0
1	9094	14221.175000182871	0
1	9096	14222.990463441653	0
1	9098	14229.731339302341	0
1	9101	14238.469863152697	0
1	9104	14243.356787665909	0
1	9106	14252.26454903632	0
1	9109	14256.131198793879	0
1	9112	14256.584596199246	0
1	9114	14272.075894059733	0
1	9117	14277.409040540614	0
1	9119	14283.871462688871	0
1	9122	14284.441929701994	0
1	9124	14287.362120812011	0
1	9126	14287.591820780998	0
1	9128	14294.65821850727	0
1	9131	14294.67619421424	0
1	9134	14300.945285246825	0
1	9137	14305.966655555453	0
1	9140	14313.778224351815	0
1	9143	14314.849255185061	0
1	9145	14317.286928567389	0
1	9148	14317.854583152448	0
1	9150	14323.708006919542	0
1	9152	14327.431039749575	0
1	9155	14329.679017624422	0
1	9157	14350.419489030093	0
1	9159	14354.049282555657	0
1	9162	14358.144523807024	0
1	9164	14362.226067387302	0
1	9166	14362.774521267393	0
1	9168	14365.508708109685	0
1	9171	14379.926181440945	0
1	9174	14389.936369693088	0
1	9177	14397.117616439577	0
1	9180	14398.168582628085	0

