version 2
run POLICY_1-13-20191213-12:40:09-1216
attr configname POLICY_1
attr datetime 20191213-12:40:09
attr experiment POLICY_1
attr inifile omnetpp.ini
attr iterationvars ""
attr iterationvarsf ""
attr measurement ""
attr network Carrefour
attr processid 1216
attr repetition 13
attr replication #13
attr resultdir results
attr runnumber 13
attr seedset 13
param **.policy 1
param **.delta 0s
param **.tillsNumber 7
param **.capacity 0.3
param **.meanInterArrivalTime 8s
param **.meanItemsInACart 12
param **.interArrivalDistribution 0
param **.itemsInCartDistribution 0

vector 0 Carrefour.decider stats_numCustomers:vector ETV
attr "" ""
attr source numCustomers
vector 1 Carrefour.decider stats_numCustomersQueue:vector ETV
attr "" ""
attr source numCustomersQueue
0	683	1200.645835331095	6
0	685	1206.053397961676	7
0	688	1212.509191343639	6
0	690	1214.781326938786	7
0	693	1218.410837949517	8
0	695	1223.226842254009	9
0	697	1229.647572107086	8
0	700	1232.309708713789	7
0	703	1236.731781989886	6
0	705	1239.08010009816	5
0	707	1242.668559778253	4
0	709	1252.973339226842	5
0	712	1256.106408017388	4
0	714	1256.83845870808	5
0	717	1267.924590449761	4
0	719	1269.04111442088	5
0	722	1273.637479774364	4
0	724	1277.808722860703	5
0	727	1278.125261495253	6
0	730	1284.988293976542	7
0	733	1291.514343961405	6
0	735	1301.564925584353	5
0	737	1307.125576687071	4
0	739	1317.921041967451	3
0	741	1318.805334997713	4
0	744	1321.600553276523	5
0	747	1322.123573168582	4
0	749	1324.91758740889	3
0	751	1325.07236266813	4
0	754	1327.10545134713	5
0	757	1327.713567488019	4
0	759	1329.70965575385	5
0	762	1341.939104439793	6
0	765	1344.950955078835	7
0	768	1346.816346986633	6
0	770	1346.955519972741	7
0	773	1355.132591814951	8
0	775	1356.401002616071	7
0	778	1358.442557778612	8
0	780	1359.277143474577	7
0	783	1361.340667065459	6
0	785	1361.922265325917	5
0	787	1363.780799647489	6
0	790	1365.604197014975	7
0	793	1368.137796960644	8
0	795	1368.681633257115	7
0	798	1369.50328023867	8
0	800	1372.259180635586	7
0	803	1375.983203660988	6
0	805	1377.565138863991	5
0	807	1385.739918588035	4
0	809	1392.840124662309	5
0	812	1393.899897676887	4
0	814	1395.493841503081	5
0	817	1399.711939401747	6
0	820	1404.126069780462	5
0	822	1408.847292650728	6
0	825	1409.919453273907	5
0	827	1411.340381871423	6
0	830	1412.052228202303	5
0	832	1414.307105982689	6
0	835	1417.149495619679	5
0	837	1430.229962536921	6
0	840	1432.125694370065	5
0	842	1438.928263889979	4
0	844	1443.199976561783	3
0	846	1445.131573050188	4
0	849	1449.691280355032	3
0	851	1450.080809912593	4
0	854	1452.729972219705	5
0	857	1453.688311594084	4
0	859	1460.24413763579	3
0	861	1462.377685472387	4
0	864	1463.024828149826	3
0	866	1471.283640144049	4
0	869	1476.123405546219	5
0	872	1478.385578889605	6
0	875	1484.633699124692	5
0	877	1485.768919758045	4
0	879	1488.390143228632	3
0	881	1489.326860849569	4
0	884	1493.136155877292	3
0	886	1495.970588206786	2
0	888	1508.923114593476	3
0	891	1509.431033809299	4
0	894	1509.695445423511	3
0	896	1512.175147081603	4
0	899	1512.727799694766	5
0	902	1519.664556244543	6
0	905	1522.476812787586	7
0	908	1525.110470456688	6
0	910	1530.171442694867	5
0	912	1531.831446816477	6
0	915	1533.273826255376	5
0	917	1537.815446449547	4
0	919	1539.410489260038	5
0	922	1541.177776575558	4
0	924	1548.299856518431	3
0	926	1563.258738578152	2
0	928	1564.094313911194	3
0	931	1564.20250226233	4
0	934	1569.11225400778	5
0	937	1572.965781582891	6
0	940	1575.383609824509	7
0	943	1583.477672450604	6
0	945	1584.489595844065	7
0	948	1589.877923397477	8
0	950	1609.461142821001	9
0	952	1618.390200848253	10
0	954	1619.931475239487	9
0	957	1620.766979226593	10
0	959	1622.904684120743	9
0	962	1624.007447651325	10
0	964	1624.883371406873	11
0	966	1627.692630446912	12
0	968	1631.67933469116	11
0	971	1633.82351562526	10
0	974	1639.346806145354	9
0	977	1639.939481270961	8
0	980	1640.718763095987	7
0	983	1642.051879008313	8
0	985	1651.582526585618	9
0	987	1658.069545894414	10
0	989	1660.273161602989	9
0	992	1660.521769396248	10
0	994	1660.562225999175	11
0	996	1662.144310455407	12
0	998	1665.773350166087	13
0	1000	1666.775365652653	12
0	1003	1669.018522616764	13
0	1005	1680.757309013578	14
0	1007	1683.115460865998	15
0	1009	1685.695056065914	16
0	1011	1686.498224732065	17
0	1013	1688.813391805344	16
0	1016	1689.266119896335	17
0	1018	1690.895292363813	16
0	1021	1691.917904737452	15
0	1024	1692.751789240882	14
0	1027	1692.81464515105	15
0	1029	1693.527727645311	16
0	1031	1695.798464575899	15
0	1034	1697.126399245874	16
0	1036	1698.789087895256	17
0	1038	1703.093406038058	16
0	1041	1710.789802167884	15
0	1044	1710.81359001215	16
0	1046	1713.249945748284	17
0	1048	1726.619861996665	16
0	1051	1728.489238484181	15
0	1054	1729.033553338853	14
0	1057	1740.18632562225	13
0	1060	1741.766525117998	12
0	1063	1749.111267213076	11
0	1066	1758.526722919528	12
0	1068	1759.095700308433	11
0	1071	1762.082631279538	10
0	1074	1762.264326780117	9
0	1077	1765.584125432083	8
0	1080	1766.81287081306	9
0	1082	1768.567798064248	8
0	1085	1778.271100495675	9
0	1087	1780.332113704866	10
0	1089	1781.18693559174	9
0	1092	1782.93681770682	8
0	1095	1786.732624887064	7
0	1098	1787.37458460714	8
0	1100	1793.146172332462	9
0	1102	1793.422646686848	8
0	1105	1795.693121189777	7
0	1108	1797.382647568759	8
0	1110	1801.250378810473	7
0	1113	1802.857994352592	6
0	1115	1804.784934838754	5
0	1117	1806.88489218305	6
0	1120	1810.673337774581	7
0	1123	1815.329746475478	6
0	1125	1815.821000090621	5
0	1127	1818.632538364578	4
0	1129	1820.24244147212	3
0	1131	1827.482435607439	4
0	1134	1832.49863690711	5
0	1137	1832.740353615201	4
0	1139	1842.714050430417	3
0	1141	1845.659951386798	4
0	1144	1848.822935791264	3
0	1146	1849.559975838509	2
0	1148	1850.259734990516	3
0	1151	1868.724661555576	4
0	1154	1881.608307901873	3
0	1156	1901.525913631114	2
0	1158	1904.899358341733	3
0	1161	1907.299782553813	2
0	1163	1915.664615653517	1
0	1165	1920.477777033261	2
0	1168	1924.224796454533	3
0	1171	1928.831625762816	4
0	1174	1935.296882332033	5
0	1177	1939.164639520247	4
0	1179	1940.005906905696	3
0	1181	1942.260472327659	2
0	1183	1942.413831964892	3
0	1186	1944.080736386779	4
0	1189	1953.756732555177	3
0	1191	1956.387007578365	4
0	1194	1956.846958065118	3
0	1196	1965.343327005586	4
0	1199	1971.801313008678	5
0	1202	1980.430023212244	4
0	1204	1982.719066306731	5
0	1207	1990.478775440024	6
0	1210	1996.116595792254	5
0	1212	1996.481676260975	4
0	1214	1998.861599856594	3
0	1216	1999.395782067994	2
0	1218	2003.152269707713	3
0	1221	2005.616495594168	2
0	1223	2009.970693199022	3
0	1226	2022.469955866574	2
0	1228	2027.678568727204	3
0	1231	2035.738024236929	2
0	1233	2038.340888286917	3
0	1236	2047.516473749846	2
0	1238	2049.081626657425	3
0	1241	2059.577616756172	2
0	1243	2084.517011041063	3
0	1246	2093.974206649849	2
0	1248	2100.85168918557	3
0	1251	2101.992165019132	4
0	1254	2102.269356709221	3
0	1256	2103.727881423298	4
0	1259	2104.691242196876	5
0	1262	2106.096088967482	4
0	1264	2113.090944563354	3
0	1266	2120.449042098713	2
0	1268	2127.447967166576	3
0	1271	2137.12259621971	4
0	1274	2137.601569958311	3
0	1276	2138.964515869374	4
0	1279	2139.446069437897	5
0	1282	2139.923518544346	4
0	1284	2143.630475037581	3
0	1286	2149.04443918867	4
0	1289	2155.603867803076	5
0	1292	2156.451045486853	6
0	1295	2158.116557314611	5
0	1297	2161.768931939642	6
0	1300	2162.998350443303	7
0	1303	2163.804224476348	8
0	1305	2170.988029266453	9
0	1307	2183.15184815172	8
0	1310	2183.882200807236	9
0	1312	2188.099325848823	8
0	1315	2189.116343400953	7
0	1318	2189.464068178305	8
0	1320	2189.961678615119	9
0	1322	2192.52766463362	10
0	1324	2192.906306878041	9
0	1327	2199.099167487658	10
0	1329	2199.598791169094	9
0	1332	2203.914727531045	8
0	1335	2205.801154341415	9
0	1337	2206.4443417811	8
0	1340	2207.973800929456	7
0	1343	2208.532523009956	6
0	1345	2210.295914070892	7
0	1348	2212.7247330386	6
0	1350	2214.357356821495	5
0	1352	2215.723494575491	6
0	1355	2218.188352290166	7
0	1358	2218.786671227366	6
0	1360	2218.890929471321	7
0	1363	2224.320781473684	8
0	1365	2225.071480445001	9
0	1367	2225.655570536651	10
0	1369	2232.255781548002	9
0	1372	2233.6023230034	10
0	1374	2234.322810783806	11
0	1376	2234.805146634529	10
0	1379	2235.222879419575	11
0	1381	2235.465041494463	10
0	1384	2237.450649369318	11
0	1386	2239.474225143697	10
0	1389	2250.569323214788	9
0	1392	2252.61855004553	10
0	1394	2263.747179921009	9
0	1397	2266.553960213733	8
0	1400	2274.945173022914	9
0	1402	2277.285029230576	10
0	1404	2280.982960505267	11
0	1406	2299.336339174583	10
0	1409	2299.895929952426	11
0	1411	2301.571016487787	12
0	1413	2303.614407758846	11
0	1416	2304.459781419632	10
0	1419	2306.124774965517	9
0	1422	2306.569934850968	8
0	1425	2308.297656081301	7
0	1428	2308.443031270759	8
0	1430	2320.901815613011	7
0	1433	2321.437558418717	8
0	1435	2322.176105566848	7
0	1438	2325.054681120134	6
0	1440	2327.590849048813	7
0	1443	2328.157486881569	6
0	1445	2328.844181855669	7
0	1448	2338.359053704851	6
0	1450	2338.564648174331	5
0	1452	2357.886562863728	4
0	1454	2358.631121751007	5
0	1457	2374.861341308791	6
0	1460	2377.97820359763	5
0	1462	2386.135836325691	6
0	1465	2388.90854982722	7
0	1468	2389.681054673223	8
0	1470	2390.117992529909	9
0	1472	2392.771679782355	8
0	1475	2393.899926534646	7
0	1478	2401.131714381274	8
0	1480	2402.238078295922	7
0	1483	2407.859920894387	8
0	1485	2407.937544513949	9
0	1487	2409.883545585252	10
0	1489	2410.179189087611	9
0	1492	2411.310895954186	8
0	1495	2413.142917641392	7
0	1498	2413.833262484135	8
0	1500	2415.363478961203	9
0	1502	2421.905785771948	8
0	1505	2425.868531051401	7
0	1508	2428.539103272021	6
0	1510	2430.312234725224	7
0	1513	2431.476960055376	6
0	1515	2433.083417412489	7
0	1518	2441.323583552081	8
0	1520	2444.719272675148	7
0	1523	2446.074003486562	6
0	1525	2448.179919206962	5
0	1527	2455.167616052741	4
0	1529	2457.745676087536	3
0	1531	2468.786392803236	4
0	1534	2470.286629873417	5
0	1537	2471.882000389212	6
0	1540	2472.466712358658	5
0	1542	2478.946665039737	6
0	1545	2479.63802565102	7
0	1548	2484.517166834591	6
0	1550	2485.299184471234	5
0	1552	2488.470478117785	6
0	1555	2488.808923170385	5
0	1557	2504.196702646584	6
0	1560	2514.607000595496	5
0	1562	2515.654130797061	6
0	1565	2528.117469458297	5
0	1567	2537.539966304304	6
0	1570	2543.384453733965	5
0	1572	2545.601104176043	6
0	1575	2554.647016123019	5
0	1577	2555.689941462885	4
0	1579	2563.525127614438	5
0	1582	2577.03786419586	6
0	1585	2582.860480244725	5
0	1587	2593.184111660779	4
0	1589	2599.896824268358	5
0	1592	2600.549255559985	4
0	1594	2601.624166717704	5
0	1597	2608.82221564891	4
0	1599	2619.767488717721	5
0	1602	2632.634941680204	4
0	1604	2634.672980284129	3
0	1606	2635.098572663535	4
0	1609	2636.116964461063	3
0	1611	2644.864536508639	2
0	1613	2648.374216880634	3
0	1616	2650.666011788537	4
0	1619	2655.863076620926	3
0	1621	2656.201215831821	4
0	1624	2657.48214982086	3
0	1626	2661.872852504294	2
0	1628	2678.304499553216	3
0	1631	2698.74710143618	2
0	1633	2707.708012133559	1
0	1635	2724.034520870061	2
0	1638	2725.864137139474	1
0	1640	2726.184984176127	2
0	1643	2727.544571676818	1
0	1645	2744.849889955594	2
0	1648	2746.691077177907	3
0	1651	2747.592245116834	4
0	1654	2750.839367143987	5
0	1657	2755.915426054124	6
0	1660	2759.774296706202	7
0	1663	2763.100791385013	8
0	1665	2764.644474240919	7
0	1668	2765.133408512448	8
0	1670	2771.295592773657	7
0	1673	2772.562118193995	8
0	1675	2772.727221007117	7
0	1678	2776.726015973568	8
0	1680	2781.177334592764	9
0	1682	2782.961869640414	8
0	1685	2783.459224991414	7
0	1688	2789.305409875401	8
0	1690	2789.874804587118	7
0	1693	2797.857473731816	6
0	1695	2798.161891703355	7
0	1698	2799.864332489644	8
0	1700	2818.784417468103	7
0	1703	2824.938070412361	6
0	1705	2826.017639934778	7
0	1708	2832.700778634491	8
0	1710	2832.770185329269	7
0	1713	2833.734752283273	6
0	1715	2835.904872778078	5
0	1717	2836.870533695014	6
0	1720	2846.487804335599	7
0	1723	2850.641407753186	8
0	1725	2851.723986203848	7
0	1728	2853.435296314041	6
0	1730	2869.449495065347	5
0	1732	2875.140495011471	4
0	1734	2883.236840342424	5
0	1737	2885.710567082885	4
0	1739	2894.708969209355	5
0	1742	2900.070022245854	6
0	1745	2902.812863905306	5
0	1747	2905.274271848581	4
0	1749	2914.602759563571	3
0	1751	2915.31398575219	4
0	1754	2916.828973407257	5
0	1757	2931.700159001494	4
0	1759	2932.48145574302	3
0	1761	2946.958895914757	2
0	1763	2950.721187489559	3
0	1766	2964.865676316456	4
0	1769	2973.15499814265	5
0	1772	2978.379767470729	6
0	1775	2981.283631381582	7
0	1778	2982.769037767724	6
0	1780	2995.459571935688	5
0	1782	3010.092018468055	6
0	1785	3011.678665064488	7
0	1788	3017.165827678033	6
0	1790	3022.278473271601	7
0	1793	3026.625164642579	8
0	1795	3032.074307490543	9
0	1797	3034.416081184366	8
0	1800	3034.532871976096	7
0	1803	3046.25301594534	6
0	1805	3046.999259706942	5
0	1807	3047.33833882544	4
0	1809	3050.891056539164	5
0	1812	3054.881178785071	4
0	1814	3057.395706436344	5
0	1817	3060.577853220614	6
0	1820	3061.648318486665	7
0	1823	3064.236130529232	8
0	1825	3070.793128572219	9
0	1827	3073.391932018367	10
0	1829	3077.236501421308	9
0	1832	3079.225227236272	10
0	1834	3080.043320127972	11
0	1836	3084.595734152875	10
0	1839	3087.880467064392	11
0	1841	3089.139733746178	12
0	1843	3093.551029857659	11
0	1846	3093.805485436147	10
0	1849	3095.638648783748	9
0	1852	3101.295709164648	8
0	1855	3104.843776488893	7
0	1858	3116.60414298639	8
0	1860	3121.570672668008	9
0	1862	3125.339004131513	10
0	1864	3128.219585001793	9
0	1867	3128.693661441372	8
0	1870	3132.540318999039	7
0	1873	3132.894827098355	6
0	1875	3143.971188209148	7
0	1878	3143.982534502953	6
0	1880	3145.335087118149	7
0	1883	3152.563779692616	8
0	1885	3152.705956784057	7
0	1888	3154.043616659587	6
0	1890	3154.22405506387	7
0	1893	3155.239272792072	8
0	1895	3170.1794163058	9
0	1897	3171.31692094277	10
0	1899	3171.630887223419	11
0	1901	3173.421213033539	12
0	1903	3180.371857518906	13
0	1905	3181.43168340567	12
0	1908	3186.083884385671	11
0	1911	3191.568121418682	12
0	1913	3192.234097230078	13
0	1915	3193.234679100193	14
0	1917	3193.29284846439	15
0	1919	3200.194063523197	16
0	1921	3201.495329592406	17
0	1923	3206.434802738446	18
0	1925	3218.686844464379	17
0	1928	3225.547367309604	18
0	1930	3228.890630353431	17
0	1933	3233.819831795273	16
0	1936	3234.987126914508	15
0	1939	3237.97693752373	16
0	1941	3238.010660007728	17
0	1943	3239.303220755983	18
0	1945	3242.296291223185	17
0	1948	3244.686647684603	16
0	1951	3249.363552118371	15
0	1954	3262.261093981812	16
0	1956	3262.309523115863	17
0	1958	3264.03308527755	18
0	1960	3264.877294508075	19
0	1962	3266.986624663772	18
0	1965	3269.756634271533	19
0	1967	3271.623432638608	18
0	1970	3275.555786509055	19
0	1972	3275.586903371468	20
0	1974	3281.993170418231	21
0	1976	3289.614656330542	22
0	1978	3291.175256475875	21
0	1981	3297.959749972781	22
0	1983	3299.029573152128	21
0	1986	3308.599711354499	20
0	1989	3309.844882801216	21
0	1991	3311.342908335208	22
0	1993	3314.249433273334	23
0	1995	3314.580372402091	22
0	1998	3316.838721798028	21
0	2001	3320.975654579865	20
0	2004	3322.22766051793	19
0	2007	3325.103026391139	18
0	2010	3331.959188537187	17
0	2013	3332.25184692078	18
0	2015	3336.006197233815	19
0	2017	3336.61598785461	20
0	2019	3345.937200009464	19
0	2022	3352.033088673288	18
0	2025	3352.233506752226	19
0	2027	3352.255770758017	18
0	2030	3353.263756808718	17
0	2033	3356.116083341844	18
0	2035	3359.1742201033	17
0	2038	3360.214781187103	16
0	2041	3363.680323247614	15
0	2044	3379.51703319878	16
0	2046	3379.822720177432	15
0	2049	3381.758913365883	14
0	2052	3382.735501447636	15
0	2054	3383.274677752841	14
0	2057	3384.427010230693	15
0	2059	3389.741666824012	14
0	2062	3397.058800972671	15
0	2064	3398.525509653935	14
0	2067	3399.295710568	15
0	2069	3401.96326427095	16
0	2071	3402.804202116494	15
0	2074	3407.649240499074	14
0	2077	3415.773817489561	15
0	2079	3417.036499344727	16
0	2081	3420.331737611491	17
0	2083	3420.451296586948	16
0	2086	3423.626961229314	15
0	2089	3426.163065068328	14
0	2092	3427.530194078291	15
0	2094	3431.993528280204	14
0	2097	3432.002791885514	13
0	2100	3434.865172370022	12
0	2103	3444.652013712944	13
0	2105	3444.697432969941	14
0	2107	3445.769121411205	13
0	2110	3446.098907048489	14
0	2112	3449.842267158541	13
0	2115	3451.823565834055	12
0	2118	3467.124740377341	13
0	2120	3480.608589954404	12
0	2123	3483.531121927674	13
0	2125	3485.470454791041	14
0	2127	3486.497534779887	13
0	2130	3486.502029056476	12
0	2133	3489.738928149689	11
0	2136	3497.568975311102	12
0	2138	3501.459624668707	13
0	2140	3503.048310774355	14
0	2142	3513.75035586364	15
0	2144	3517.058037498395	14
0	2147	3522.268337710864	13
0	2150	3523.033531624741	14
0	2152	3524.649761243815	13
0	2155	3524.953683029873	12
0	2158	3525.398944197106	11
0	2161	3528.129615560505	10
0	2164	3535.217687461751	11
0	2166	3536.763667659584	12
0	2168	3538.831275874318	13
0	2170	3546.378558513131	12
0	2173	3546.64996462421	11
0	2176	3556.300016650464	12
0	2178	3556.37600356048	13
0	2180	3560.123656166765	14
0	2182	3564.01922379258	13
0	2185	3569.962839853695	12
0	2188	3573.795234407527	13
0	2190	3575.017144482549	12
0	2193	3575.255492249535	11
0	2196	3583.958854361348	10
0	2199	3584.035675864426	11
0	2201	3588.094900386438	10
0	2204	3588.984043344705	9
0	2207	3590.316939865743	8
0	2210	3592.68542441711	9
0	2212	3593.682953334222	10
0	2214	3594.485005567841	9
0	2217	3596.432976519833	8
0	2220	3596.461333727903	7
0	2223	3597.664291944339	8
0	2225	3598.828811614957	9
0	2227	3602.470943466688	8
0	2230	3603.401178523929	7
0	2233	3615.195710983174	8
0	2235	3619.581445041736	9
0	2237	3622.404061831908	10
0	2239	3623.35692368615	9
0	2242	3631.731419287359	10
0	2244	3634.631956191337	9
0	2247	3643.935481023829	10
0	2249	3645.061787628509	11
0	2251	3648.548173225114	10
0	2254	3652.549789743493	9
0	2257	3669.841784421361	8
0	2260	3679.064263192906	7
0	2263	3679.22192056822	6
0	2265	3680.027562508185	5
0	2267	3682.253329230244	4
0	2269	3683.782031340794	5
0	2272	3686.086134262875	6
0	2275	3686.778041952427	5
0	2277	3688.926739414417	6
0	2280	3688.964362119644	5
0	2282	3690.006393899064	6
0	2285	3692.977918141411	5
0	2287	3701.590652592887	4
0	2289	3705.294825991159	5
0	2292	3715.416250315284	4
0	2294	3739.13347977837	5
0	2297	3740.260576105973	4
0	2299	3758.063471425313	5
0	2302	3760.215936672712	6
0	2305	3776.643854502519	7
0	2308	3783.170337709743	6
0	2310	3794.968657540207	5
0	2312	3799.215402506442	6
0	2315	3805.236279667066	7
0	2318	3806.587122072099	6
0	2320	3808.45110980686	5
0	2322	3814.117842861393	6
0	2325	3815.705105781802	7
0	2328	3816.776564685269	8
0	2330	3821.685344396383	7
0	2333	3827.332000547822	8
0	2335	3836.088046075417	9
0	2337	3836.432879134204	10
0	2339	3836.890963063003	11
0	2341	3842.533399144518	12
0	2343	3847.541289510147	13
0	2345	3848.179995159201	14
0	2347	3854.164863557113	13
0	2350	3855.88522216659	14
0	2352	3855.937516200269	13
0	2355	3858.864716093778	14
0	2357	3861.214291856443	13
0	2360	3863.218123683707	12
0	2363	3863.778665227418	13
0	2365	3875.342253953144	14
0	2367	3876.249291378106	13
0	2370	3877.408065391385	12
0	2373	3880.499041544405	11
0	2376	3886.038565021932	12
0	2378	3893.962690854755	13
0	2380	3898.157749120219	12
0	2383	3899.802966250124	11
0	2386	3901.072009549344	10
0	2389	3903.138821954516	9
0	2392	3904.534534612751	10
0	2394	3906.298450191407	9
0	2397	3912.117389707031	8
0	2400	3917.490338150537	9
0	2402	3921.416863477494	8
0	2405	3922.269915138172	9
0	2407	3930.009273430994	10
0	2409	3931.873128634125	9
0	2412	3932.535282337591	8
0	2415	3933.711517980856	7
0	2418	3935.274110988907	6
0	2420	3936.707013233435	5
0	2422	3941.608304330292	4
0	2424	3941.700280365963	5
0	2427	3945.027223517643	6
0	2430	3946.898304769932	5
0	2432	3947.684620827663	4
0	2434	3949.812078620068	5
0	2437	3951.849844156189	6
0	2440	3954.508200428632	7
0	2443	3954.667398600011	8
0	2445	3955.843677261019	9
0	2447	3959.288339970873	10
0	2449	3961.088935341334	11
0	2451	3969.427637728983	10
0	2454	3971.350445471211	9
0	2457	3979.617044435539	8
0	2460	3980.010264766848	7
0	2463	3982.069075165602	8
0	2465	3982.174041920914	7
0	2468	3983.269839647549	6
0	2470	3986.812173912624	7
0	2473	3993.509398945236	6
0	2475	3994.754838012499	7
0	2478	3995.628373234986	6
0	2480	3997.445690710035	5
0	2482	3997.805520837915	6
0	2485	4003.520806101552	7
0	2488	4006.909202052474	6
0	2490	4011.660327488098	5
0	2492	4011.858773459179	6
0	2495	4019.183124020225	5
0	2497	4023.954430393388	6
0	2500	4032.453882055031	7
0	2503	4032.95954745839	6
0	2505	4033.499109360049	7
0	2508	4040.719205146886	6
0	2510	4043.0910549623	5
0	2512	4045.465286457464	6
0	2515	4047.166010509321	5
0	2517	4050.584931542772	6
0	2520	4054.539298105135	5
0	2522	4060.735528781998	6
0	2525	4071.104158601586	7
0	2528	4073.674120484977	8
0	2530	4076.731541792829	7
0	2533	4077.057695784597	6
0	2535	4085.305444932848	5
0	2537	4086.457611302773	6
0	2540	4094.002613456433	7
0	2543	4094.987806512448	8
0	2545	4098.240776747479	7
0	2548	4109.075556125393	6
0	2550	4111.081156976993	7
0	2553	4111.914056309384	6
0	2555	4114.789140427847	5
0	2557	4115.266574882133	6
0	2560	4115.584460510872	5
0	2562	4123.841909020991	4
0	2564	4131.473917114923	5
0	2567	4131.906373758608	6
0	2570	4137.005774003177	7
0	2573	4139.037730858367	6
0	2575	4144.064989516186	5
0	2577	4144.213130559527	4
0	2579	4145.613951030664	3
0	2581	4156.040755757593	4
0	2584	4158.090886640363	5
0	2587	4163.021072891442	4
0	2589	4163.227777011136	5
0	2592	4163.426939905623	6
0	2595	4164.953652889538	7
0	2598	4172.249070450042	8
0	2600	4177.097584949081	7
0	2603	4179.081558213702	6
0	2605	4184.470821126941	7
0	2608	4187.067283516659	6
0	2610	4191.952947792504	7
0	2613	4194.331096646055	6
0	2615	4200.762588514556	5
0	2617	4207.676095576432	6
0	2620	4208.476448862151	7
0	2623	4208.970442961988	6
0	2625	4211.449661880975	5
0	2627	4214.041124110681	6
0	2630	4216.068928664727	7
0	2633	4224.158116053998	8
0	2635	4224.598714168228	9
0	2637	4233.071403132789	10
0	2639	4233.287420993675	11
0	2641	4233.883704238044	12
0	2643	4238.606049245912	13
0	2645	4240.758114305798	14
0	2647	4243.235077335543	15
0	2649	4243.307344465364	14
0	2652	4245.609443444162	15
0	2654	4246.869295482664	14
0	2657	4254.756239495206	13
0	2660	4260.595570293229	14
0	2662	4261.161279339868	13
0	2665	4264.161475167974	14
0	2667	4264.68100568456	15
0	2669	4264.914826919101	16
0	2671	4265.060437932412	15
0	2674	4276.864114125441	16
0	2676	4278.500413939901	15
0	2679	4282.853031469469	14
0	2682	4289.509273989025	13
0	2685	4293.7993103134	14
0	2687	4298.306770349416	15
0	2689	4298.853331695636	14
0	2692	4301.46765245465	15
0	2694	4303.252018296318	16
0	2696	4310.82325949254	17
0	2698	4314.430421415965	18
0	2700	4319.895371351419	17
0	2703	4320.866229504214	16
0	2706	4321.308556030847	15
0	2709	4321.679581951021	14
0	2712	4322.137110724859	13
0	2715	4329.489181479024	12
0	2718	4330.027243656771	11
0	2721	4330.737210251309	10
0	2724	4330.842214718591	9
0	2727	4347.171155915859	10
0	2729	4348.446690740866	9
0	2732	4352.807780928609	8
0	2735	4353.07792836763	7
0	2738	4354.631276930017	6
0	2740	4365.015615166197	7
0	2743	4366.19745484458	6
0	2745	4384.097688919043	5
0	2747	4387.521727171004	6
0	2750	4390.770622082408	7
0	2753	4393.384531057529	6
0	2755	4394.286022380421	5
0	2757	4394.366496332738	4
0	2759	4406.933808367551	3
0	2761	4408.109693776376	2
0	2763	4411.803046498126	3
0	2766	4413.29283616019	4
0	2769	4421.75064089938	5
0	2772	4423.308016311058	4
0	2774	4428.883683808539	5
0	2777	4438.317057851525	4
0	2779	4438.748305199657	3
0	2781	4449.031993067373	4
0	2784	4456.860339152372	5
0	2787	4461.641037110757	6
0	2790	4463.412789000756	5
0	2792	4463.706350494462	4
0	2794	4465.414096581798	3
0	2796	4478.062667997942	2
0	2798	4478.722129109104	3
0	2801	4491.086889888666	4
0	2804	4507.740756712966	5
0	2807	4508.936168494256	6
0	2810	4509.401185608094	5
0	2812	4509.610112743685	4
0	2814	4512.277726076115	5
0	2817	4519.364097095684	6
0	2820	4519.53614054675	7
0	2823	4521.132244607543	6
0	2825	4525.546383940066	7
0	2828	4526.822857124364	8
0	2830	4530.575256898053	9
0	2832	4536.053434803243	8
0	2835	4538.590657363538	7
0	2838	4544.376963397631	8
0	2840	4549.548669018053	7
0	2843	4550.083742737782	8
0	2845	4550.648351640307	9
0	2847	4551.935290786728	10
0	2849	4553.393404128663	9
0	2852	4553.430669999042	8
0	2855	4559.016643255165	9
0	2857	4566.863146423298	10
0	2859	4571.313141156635	9
0	2862	4571.542350077314	10
0	2864	4576.797505135512	11
0	2866	4578.42511307207	12
0	2868	4580.79165111851	11
0	2871	4587.307641637603	10
0	2874	4589.512344616923	9
0	2877	4591.578296089497	10
0	2879	4591.655010663162	9
0	2882	4596.674325645984	10
0	2884	4597.120868550627	11
0	2886	4602.851402032305	10
0	2889	4605.661816572577	11
0	2891	4613.969487607791	10
0	2894	4616.290823245161	11
0	2896	4625.66535946647	12
0	2898	4627.321949718738	13
0	2900	4633.57159330237	14
0	2902	4636.38154863551	15
0	2904	4641.868094583086	16
0	2906	4644.096313966373	15
0	2909	4645.465633297481	16
0	2911	4653.492798097035	17
0	2913	4653.856743744194	16
0	2916	4666.570809513532	15
0	2919	4671.769320882578	16
0	2921	4673.694969520692	17
0	2923	4675.903136739005	16
0	2926	4679.176102503224	15
0	2929	4683.730782643703	14
0	2932	4692.407563230847	13
0	2935	4693.247345286571	12
0	2938	4698.743060396971	13
0	2940	4701.528756319976	12
0	2943	4706.569267115213	11
0	2946	4715.253905417806	10
0	2949	4715.758669804745	11
0	2951	4716.885451771893	12
0	2953	4718.592925601409	13
0	2955	4720.689149826347	12
0	2958	4723.420435656716	13
0	2960	4727.579081619282	12
0	2963	4728.962742318488	11
0	2966	4733.523295765855	12
0	2968	4734.626934715771	11
0	2971	4738.587791299019	10
0	2974	4741.605019677732	9
0	2977	4742.516332413501	8
0	2980	4750.220227616601	7
0	2983	4756.741180486997	6
0	2985	4756.997276006475	5
0	2987	4769.385666083011	6
0	2990	4778.873393993277	5
0	2992	4794.652194857936	6
0	2995	4800.411622822773	5
0	2997	4802.725175574522	4
0	2999	4806.568639839827	3
0	3001	4810.34546568306	2
0	3003	4814.106226451381	3
0	3006	4814.185620904965	4
0	3009	4821.45399843695	5
0	3012	4825.749543916144	6
0	3015	4826.052915466848	5
0	3017	4826.816306890472	4
0	3019	4827.694784545893	5
0	3022	4827.722177855875	4
0	3024	4833.782103498785	3
0	3026	4836.805326474617	4
0	3029	4846.571842027202	3
0	3031	4850.140722504339	4
0	3034	4851.769400361451	5
0	3037	4851.808638245847	4
0	3039	4856.484560131907	5
0	3042	4858.641751221578	6
0	3045	4859.741834684525	5
0	3047	4861.011563952344	4
0	3049	4864.586850480105	5
0	3052	4870.686022324808	6
0	3055	4875.805179283912	7
0	3058	4878.845699004113	6
0	3060	4879.172369471948	5
0	3062	4880.11967865022	6
0	3065	4880.215655197276	5
0	3067	4882.335193725655	6
0	3070	4884.318190839901	5
0	3072	4892.934208146773	4
0	3074	4893.221871520633	5
0	3077	4898.68442720909	4
0	3079	4906.491263638599	5
0	3082	4907.399761766077	6
0	3085	4918.837813119977	5
0	3087	4919.298015335974	6
0	3090	4922.188442594122	5
0	3092	4923.396721731157	6
0	3095	4926.641378167571	5
0	3097	4930.831832337653	4
0	3099	4932.28470100676	3
0	3101	4936.702655393268	4
0	3104	4940.252630391212	3
0	3106	4941.098692105942	2
0	3108	4945.756301526682	3
0	3111	4951.182342007603	4
0	3114	4952.37420570501	3
0	3116	4965.330105155507	4
0	3119	4966.007293239614	3
0	3121	4971.822051432796	2
0	3123	4972.166715446315	3
0	3126	4975.034077901658	4
0	3129	4976.204630750774	5
0	3132	4980.353925995069	4
0	3134	4988.565258223948	3
0	3136	4991.386054230447	2
0	3138	4992.742168203117	3
0	3141	5001.912549491806	4
0	3144	5006.7115990685	5
0	3147	5007.181978688135	6
0	3150	5013.732771944776	5
0	3152	5029.906838130102	4
0	3154	5035.392891163793	5
0	3157	5036.085185131805	4
0	3159	5037.594026286135	3
0	3161	5045.376083925003	4
0	3164	5048.465941373663	3
0	3166	5084.624279265166	2
0	3168	5091.483694855346	1
0	3170	5096.276042600798	2
0	3173	5102.578855105431	1
0	3175	5102.72810756219	2
0	3178	5106.779632985615	3
0	3181	5111.594837573988	4
0	3184	5112.080468684012	3
0	3186	5112.271748689712	4
0	3189	5113.308378199411	5
0	3192	5113.550502947334	4
0	3194	5115.01825879372	5
0	3197	5119.812785344369	4
0	3199	5121.434216495753	5
0	3202	5127.232321896188	6
0	3205	5127.900073661311	7
0	3208	5128.040874962586	6
0	3210	5132.989386178303	7
0	3213	5136.828686791046	6
0	3215	5142.432155256446	7
0	3218	5143.509400508133	6
0	3220	5145.322306798455	7
0	3223	5146.650954519442	6
0	3225	5153.296406222034	7
0	3228	5154.660426930929	6
0	3230	5158.888028488062	5
0	3232	5160.522974012842	6
0	3235	5160.768591897867	5
0	3237	5170.284088041109	6
0	3240	5172.406627233581	7
0	3243	5176.681891556359	6
0	3245	5188.775004581182	5
0	3247	5192.214660576432	6
0	3250	5197.013552381403	7
0	3253	5197.647092542771	6
0	3255	5199.926469749051	5
0	3257	5204.804525857898	6
0	3260	5204.878202379428	7
0	3263	5205.640582525436	6
0	3265	5210.813174856581	5
0	3267	5213.988265847441	4
0	3269	5217.163788488837	5
0	3272	5224.359556512185	6
0	3275	5229.254841688891	7
0	3278	5229.593496105761	6
0	3280	5229.947054405348	5
0	3282	5234.094972148075	6
0	3285	5235.558063919715	7
0	3288	5243.973126832799	8
0	3290	5244.699762425792	7
0	3293	5250.1766025246	8
0	3295	5250.280991087774	7
0	3298	5250.340258248892	8
0	3300	5254.134701514889	7
0	3303	5255.093374180884	6
0	3305	5257.997330579577	7
0	3308	5259.776483579716	6
0	3310	5265.494933481123	7
0	3313	5270.339480324743	6
0	3315	5274.038608988826	5
0	3317	5274.175344938415	4
0	3319	5275.933206408455	5
0	3322	5276.275420782911	4
0	3324	5286.551340431712	5
0	3327	5291.734751577416	6
0	3330	5294.615034306322	7
0	3333	5304.908191234202	6
0	3335	5306.989950224034	5
0	3337	5316.136050013286	4
0	3339	5319.412762905372	5
0	3342	5322.986453360288	6
0	3345	5324.822721486695	5
0	3347	5329.626938001792	6
0	3350	5333.745008658287	7
0	3353	5339.51677986124	8
0	3355	5348.645111919212	7
0	3358	5352.464740829897	8
0	3360	5362.313602765252	7
0	3363	5365.312732293989	6
0	3365	5365.517194077017	7
0	3368	5368.051362927605	6
0	3370	5369.170278422264	7
0	3373	5373.742052100512	8
0	3375	5374.224595825799	9
0	3377	5382.754998615197	8
0	3380	5383.876519344971	7
0	3383	5387.888890727751	8
0	3385	5387.985410696232	7
0	3388	5389.871656801291	8
0	3390	5401.47148674553	9
0	3392	5403.231381910588	10
0	3394	5411.045536261314	9
0	3397	5419.87301883649	10
0	3399	5422.928217150712	11
0	3401	5427.183138264383	10
0	3404	5429.744545256009	11
0	3406	5436.503725096215	10
0	3409	5439.451266436964	9
0	3412	5442.978683237533	10
0	3414	5445.451715857217	9
0	3417	5447.170927021804	10
0	3419	5447.998068371828	9
0	3422	5449.073345768701	8
0	3425	5449.168243489843	7
0	3428	5451.870829787916	8
0	3430	5455.88517509085	7
0	3433	5459.371743205607	6
0	3435	5461.927462635249	7
0	3438	5462.256212526049	8
0	3440	5463.146827769193	9
0	3442	5464.448240435002	10
0	3444	5466.609905800404	9
0	3447	5467.318666293996	10
0	3449	5467.59455306615	9
0	3452	5467.910301468602	8
0	3455	5471.457958047007	9
0	3457	5472.948361999407	10
0	3459	5482.631493145667	11
0	3461	5485.143688034832	10
0	3464	5489.844205206638	11
0	3466	5490.559990577965	12
0	3468	5491.348554172036	13
0	3470	5493.060851607783	12
0	3473	5496.877030223822	13
0	3475	5500.260827121576	14
0	3477	5503.169643764654	13
0	3480	5507.445274339385	12
0	3483	5509.689765669849	13
0	3485	5510.9195317081	14
0	3487	5512.011064285771	13
0	3490	5512.047171703523	12
0	3493	5514.407475847487	13
0	3495	5516.682862832889	14
0	3497	5517.933574799515	13
0	3500	5519.147005261835	12
0	3503	5522.939860644469	11
0	3506	5533.648530521356	12
0	3508	5537.185236221676	13
0	3510	5544.211865885265	12
0	3513	5545.743275258144	11
0	3516	5547.98368641521	12
0	3518	5553.862302233006	11
0	3521	5555.074481567971	10
0	3524	5570.062283886622	9
0	3527	5570.236745393665	10
0	3529	5570.833276021647	9
0	3532	5578.008963694024	10
0	3534	5580.292306195201	11
0	3536	5589.089264417909	12
0	3538	5590.896775225031	11
0	3541	5594.714670260122	10
0	3544	5596.252851226012	11
0	3546	5597.994218209657	10
0	3549	5613.517523692806	9
0	3552	5619.802222917355	10
0	3554	5621.200836236884	11
0	3556	5623.206397627272	12
0	3558	5631.672930848402	11
0	3561	5631.868383495887	10
0	3564	5635.996075429911	9
0	3567	5637.843078401934	10
0	3569	5637.867948289663	11
0	3571	5639.12932336023	12
0	3573	5650.032866052731	13
0	3575	5655.289573659349	14
0	3577	5656.542797469223	15
0	3579	5660.587934951272	14
0	3582	5664.074281477927	13
0	3585	5664.458457126302	12
0	3588	5669.607108121512	11
0	3591	5670.655459689407	12
0	3593	5672.106970304881	11
0	3596	5677.701371709762	10
0	3599	5685.026185201357	9
0	3602	5685.532580417574	8
0	3605	5685.838669127035	9
0	3607	5686.82476673593	10
0	3609	5690.013987617379	11
0	3611	5690.367724131808	12
0	3613	5695.833001531557	11
0	3616	5699.788931183662	10
0	3619	5703.490314407638	9
0	3622	5704.221092674821	10
0	3624	5705.296575053028	9
0	3627	5707.801099432506	8
0	3630	5708.127682807382	9
0	3632	5708.823248330112	10
0	3634	5709.855759406906	9
0	3637	5710.307198692484	8
0	3640	5717.166203118049	9
0	3642	5717.957095469441	8
0	3645	5719.367408497341	7
0	3648	5719.476490070919	6
0	3650	5720.346816091284	7
0	3653	5720.440323055016	6
0	3655	5725.009279546537	7
0	3658	5726.692116189354	6
0	3660	5728.250502340318	5
0	3662	5736.203543538964	6
0	3665	5738.39822032484	5
0	3667	5741.851162821543	6
0	3670	5746.477169867512	5
0	3672	5747.533246616325	4
0	3674	5752.864375411526	5
0	3677	5759.535603146439	6
0	3680	5762.271555740582	7
0	3683	5767.024798119615	8
0	3685	5768.554700489715	7
0	3688	5768.995401811588	6
0	3690	5774.747271818633	7
0	3693	5776.674164486051	6
0	3695	5783.80838212115	5
0	3697	5785.266244367179	4
0	3699	5785.477562270046	3
0	3701	5790.405347807216	4
0	3704	5791.816563391413	5
0	3707	5794.9924486806	6
0	3710	5798.140340464695	5
0	3712	5799.695181378581	6
0	3715	5805.659516805609	5
0	3717	5809.911563020425	4
0	3719	5815.881754646008	5
0	3722	5821.577694688159	4
0	3724	5821.979488374486	3
0	3726	5825.021769807242	4
0	3729	5826.326522310429	5
0	3732	5828.159174766347	6
0	3735	5829.903983756699	5
0	3737	5830.875413789035	4
0	3739	5832.051777344026	3
0	3741	5832.669098188076	4
0	3744	5833.593566081168	5
0	3747	5836.238000368855	6
0	3750	5837.929077529712	7
0	3753	5841.68733791388	8
0	3755	5844.108095708697	7
0	3758	5846.255891014758	6
0	3760	5848.701156962038	7
0	3763	5851.414513731431	6
0	3765	5854.43309553382	5
0	3767	5855.426110690337	4
0	3769	5859.648821921044	3
0	3771	5864.332604423509	4
0	3774	5864.741925167381	3
0	3776	5866.363303659619	4
0	3779	5869.972953364352	3
0	3781	5879.998050451273	4
0	3784	5883.502286997032	5
0	3787	5888.376770442587	6
0	3790	5888.701384910598	5
0	3792	5898.725714795951	4
0	3794	5898.745761540975	3
0	3796	5902.080784536358	4
0	3799	5903.346107175894	5
0	3802	5921.755626666878	6
0	3805	5926.229172234603	7
0	3808	5931.200198184822	6
0	3810	5934.600233758209	5
0	3812	5935.195163496867	4
0	3814	5941.325327110683	3
0	3816	5945.364398081572	2
0	3818	5947.584852620099	1
0	3820	5953.098315275876	2
0	3823	5953.412627944984	3
0	3826	5954.279157338365	4
0	3829	5958.680603663898	3
0	3831	5961.532024017071	4
0	3834	5972.830571624871	3
0	3836	5977.677975166909	2
0	3838	5989.8868515577	3
0	3841	5995.385787300997	4
0	3844	5996.333566194127	5
0	3847	6006.147861860248	4
0	3849	6010.257706424689	5
0	3852	6021.746225026754	4
0	3854	6022.025426206357	3
0	3856	6028.032456785998	4
0	3859	6029.559604245507	3
0	3861	6030.450233438722	2
0	3863	6038.685277548349	1
0	3865	6043.719599292624	2
0	3868	6052.180159279336	3
0	3871	6056.722806739556	4
0	3874	6067.564384666835	5
0	3877	6069.367913024547	6
0	3880	6069.415027391927	5
0	3882	6073.432304905533	6
0	3885	6075.987657754678	5
0	3887	6082.552057470974	4
0	3889	6084.19738067226	3
0	3891	6087.203619050075	4
0	3894	6089.231859441125	5
0	3897	6089.54848480533	6
0	3900	6090.724148761148	7
0	3903	6094.111481067144	8
0	3905	6094.288037970484	9
0	3907	6094.497274598076	10
0	3909	6095.314029235498	11
0	3911	6099.842855890977	10
0	3914	6102.905535503615	9
0	3917	6103.334557802489	8
0	3920	6118.127293442154	7
0	3923	6118.202124332721	8
0	3925	6120.601331530522	9
0	3927	6121.186873186272	8
0	3930	6121.796575347834	7
0	3933	6121.863911438168	6
0	3935	6122.690625835639	7
0	3938	6124.372416206323	6
0	3940	6124.613263551844	5
0	3942	6125.779490064882	6
0	3945	6125.841219183866	7
0	3948	6131.166855174293	6
0	3950	6141.092403546566	5
0	3952	6144.801486083828	4
0	3954	6146.222805994496	3
0	3956	6146.385395611187	4
0	3959	6146.7554490414	3
0	3961	6147.097040232348	4
0	3964	6160.215884793128	3
0	3966	6171.044045790793	4
0	3969	6175.49208956625	5
0	3972	6184.223468384035	6
0	3975	6186.213224966644	7
0	3978	6188.530140915214	6
0	3980	6190.937253485414	5
0	3982	6197.993720939319	4
0	3984	6201.342606570899	3
0	3986	6205.091922039124	2
0	3988	6206.97382103132	3
0	3991	6216.101231060811	4
0	3994	6227.502601941658	3
0	3996	6228.218023076762	4
0	3999	6233.670822509718	5
0	4002	6234.958810260636	6
0	4005	6235.732031461057	5
0	4007	6236.041775081416	6
0	4010	6243.995731577195	7
0	4013	6244.811005826395	6
0	4015	6245.375707352624	7
0	4018	6259.485395309359	8
0	4020	6263.658999474719	9
0	4022	6265.822487552179	8
0	4025	6267.810003983983	9
0	4027	6268.034611261559	10
0	4029	6269.35329780387	11
0	4031	6274.955113840641	12
0	4033	6280.527613461847	13
0	4035	6281.596241104853	12
0	4038	6310.783776000944	11
0	4041	6315.595295560583	10
0	4044	6315.810229231784	9
0	4047	6321.833463211306	8
0	4050	6322.465065010471	7
0	4053	6325.678794252195	6
0	4055	6328.466561092967	7
0	4058	6330.440219495853	6
0	4060	6332.164836905638	5
0	4062	6332.716377959973	4
0	4064	6336.757253569895	5
0	4067	6338.520656827241	4
0	4069	6339.195440508466	3
0	4071	6345.411280938839	2
0	4073	6349.348038508429	3
0	4076	6352.423857773091	2
0	4078	6356.486305721401	3
0	4081	6364.059064238857	4
0	4084	6375.943108184232	5
0	4087	6378.482119126583	6
0	4090	6381.262445177927	5
0	4092	6384.272168264777	6
0	4095	6390.366151762649	5
0	4097	6392.050244254463	4
0	4099	6392.515125392336	3
0	4101	6396.798342320267	4
0	4104	6398.729085387043	5
0	4107	6399.472009950088	6
0	4110	6407.413010510178	7
0	4113	6410.682528476519	6
0	4115	6412.845670132756	5
0	4117	6415.432065689699	4
0	4119	6416.433095148958	5
0	4122	6418.270678295179	6
0	4125	6420.009743641596	7
0	4128	6424.382736723291	6
0	4130	6426.822730301928	5
0	4132	6430.547833145871	4
0	4134	6436.255602763989	3
0	4136	6436.776251406166	4
0	4139	6450.910988386158	5
0	4142	6452.942491846783	6
0	4145	6456.084246854071	5
0	4147	6464.464001042783	6
0	4150	6467.376963914037	5
0	4152	6467.784094273949	4
0	4154	6471.536329013229	3
0	4156	6479.78970412259	2
0	4158	6492.074722107492	3
0	4161	6500.650043714074	4
0	4164	6502.24321290877	5
0	4167	6506.295854286127	4
0	4169	6512.706498892119	5
0	4172	6515.702040265363	6
0	4175	6523.850639655695	7
0	4178	6525.459276483562	8
0	4180	6530.420034090219	9
0	4182	6530.834108355344	10
0	4184	6532.199114211408	9
0	4187	6533.42254569456	8
0	4190	6536.162301890991	7
0	4193	6549.500918480442	6
0	4195	6549.55109812078	7
0	4198	6549.681949722698	6
0	4200	6553.966205233583	7
0	4203	6565.381051388923	6
0	4205	6566.939474582666	5
0	4207	6569.275395039099	6
0	4210	6573.998360094846	5
0	4212	6574.097908451189	4
0	4214	6575.766142288676	3
0	4216	6581.050843010662	4
0	4219	6600.138878824071	3
0	4221	6602.772727607265	2
0	4223	6612.101956951328	3
0	4226	6628.932962277796	2
0	4228	6630.297136443874	1
0	4230	6650.231547319922	2
0	4233	6656.542294238993	1
0	4235	6664.60620806032	0
0	4237	6669.196582952179	1
0	4240	6670.177153561294	0
0	4242	6685.513308937876	1
0	4245	6688.752648353342	2
0	4248	6689.118061906885	3
0	4251	6692.351688055064	4
0	4254	6705.554184010691	3
0	4256	6708.796295382252	2
0	4258	6712.123424579467	1
0	4260	6720.015980992427	2
0	4263	6723.03328592983	1
0	4265	6735.776168113421	2
0	4268	6737.312523727942	3
0	4271	6739.080262334222	4
0	4274	6740.43277428087	5
0	4277	6743.363587422894	4
0	4279	6744.685122106935	3
0	4281	6746.56671069448	4
0	4284	6746.798522129046	3
0	4286	6747.461890075412	2
0	4288	6754.390138458959	3
0	4291	6754.598200102707	2
0	4293	6768.6098381899	3
0	4296	6771.449674730666	2
0	4298	6773.177469787564	3
0	4301	6776.002161824748	4
0	4304	6780.548189794681	5
0	4307	6782.409809358215	4
0	4309	6784.274735044879	3
0	4311	6785.939257331086	4
0	4314	6792.79932285304	3
0	4316	6802.186423750498	2
0	4318	6804.850692903721	3
0	4321	6816.243727402402	4
0	4324	6816.571892718971	3
0	4326	6836.87624510099	4
0	4329	6837.365381741494	3
0	4331	6839.323204706046	4
0	4334	6839.844197663663	5
0	4337	6858.726302292678	6
0	4340	6859.072211260411	7
0	4343	6860.286940972339	6
0	4345	6860.839612259282	5
0	4347	6862.828301449314	4
0	4349	6866.90832601505	3
0	4351	6886.938071377501	2
0	4353	6888.462739031433	3
0	4356	6890.961105220354	2
0	4358	6897.163270951787	3
0	4361	6900.38352445209	4
0	4364	6907.713479138232	3
0	4366	6912.203399041602	2
0	4368	6912.637057703511	3
0	4371	6927.077841881898	2
0	4373	6933.632409995657	1
0	4375	6948.648856587592	2
0	4378	6956.041108357279	3
0	4381	6956.058442777905	2
0	4383	6960.384884726715	3
0	4386	6967.930975433689	2
0	4388	6969.034269959167	3
0	4391	6970.265364971709	4
0	4394	6978.17886256551	3
0	4396	6981.980825533351	2
0	4398	6985.359336598931	3
0	4401	6988.068500422794	4
0	4404	6990.489431997866	3
0	4406	6992.141748152749	2
0	4408	7015.517752554635	3
0	4411	7033.123209951436	2
0	4413	7043.361704402923	3
0	4416	7043.475341231652	2
0	4418	7044.719083586781	1
0	4420	7055.732076352555	2
0	4423	7056.346063148584	3
0	4426	7065.090599678941	4
0	4429	7079.40356823989	5
0	4432	7081.175415902611	6
0	4435	7082.555659923962	5
0	4437	7084.267624672758	6
0	4440	7084.485025468163	5
0	4442	7086.014366480062	4
0	4444	7101.541982388494	3
0	4446	7112.556868426169	4
0	4449	7116.336927941291	5
0	4452	7125.830878406361	6
0	4455	7132.208407342881	7
0	4458	7139.040200283358	6
0	4460	7139.8175972829	7
0	4463	7141.934280585638	6
0	4465	7146.597691526982	7
0	4468	7153.552868219691	8
0	4470	7154.523052102934	9
0	4472	7162.85023902751	8
0	4475	7166.261223267189	7
0	4478	7166.282016579464	8
0	4480	7171.439972569538	9
0	4482	7178.756938104966	8
0	4485	7181.12264816804	7
0	4488	7182.890230623748	8
0	4490	7184.158002759504	9
0	4492	7186.38587774006	8
0	4495	7187.583329840557	7
0	4498	7191.733765600816	8
0	4500	7193.678828204438	7
0	4503	7196.649934682575	6
0	4505	7208.753106365817	5
0	4507	7208.861481763225	6
0	4510	7213.862132164729	5
0	4512	7216.098355892134	4
0	4514	7219.251303270377	5
0	4517	7221.384954187544	6
0	4520	7221.502939518424	5
0	4522	7226.164662310467	4
0	4524	7233.844460748569	5
0	4527	7235.631432202085	6
0	4530	7242.033057643271	7
0	4533	7242.726195287618	6
0	4535	7262.933020100915	7
0	4538	7263.224402756137	8
0	4540	7265.501885473138	7
0	4543	7267.198188363594	6
0	4545	7281.472749236622	7
0	4548	7282.899090086975	8
0	4550	7284.099881480801	7
0	4553	7284.772566215115	6
0	4555	7285.08303958117	5
0	4557	7286.995761686685	6
0	4560	7288.66132718726	7
0	4563	7291.362690891125	6
0	4565	7297.909033469501	5
0	4567	7306.308318648723	4
0	4569	7307.213743311012	5
0	4572	7314.938113815378	4
0	4574	7315.634991872109	5
0	4577	7318.84696990056	6
0	4580	7322.992434389595	5
0	4582	7329.935733049835	4
0	4584	7332.982075322607	3
0	4586	7333.013263785207	4
0	4589	7333.847156481198	3
0	4591	7350.981631805043	2
0	4593	7353.734265899652	3
0	4596	7372.453590210184	4
0	4599	7379.261974092136	5
0	4602	7380.219265834822	4
0	4604	7394.321583127602	3
0	4606	7399.481393645704	4
0	4609	7406.078633740619	5
0	4612	7411.267915630196	6
0	4615	7412.946993849276	7
0	4618	7419.579020202307	6
0	4620	7420.824945019826	5
0	4622	7426.921995439186	4
0	4624	7430.788794324491	3
0	4626	7436.538364605471	2
0	4628	7437.23236428396	1
0	4630	7458.102219394056	2
0	4633	7459.419490040676	3
0	4636	7461.598636788253	2
0	4638	7466.094132001582	3
0	4641	7467.765298485631	2
0	4643	7469.290925493593	3
0	4646	7472.835208027925	4
0	4649	7475.04907649556	3
0	4651	7491.166221761211	4
0	4654	7494.036704960114	5
0	4657	7494.238337850486	4
0	4659	7495.327488626543	5
0	4662	7496.138713805513	4
0	4664	7507.946130295509	5
0	4667	7508.025933671503	6
0	4670	7512.186508348059	5
0	4672	7516.081707496288	4
0	4674	7516.145297853552	3
0	4676	7519.636288380277	4
0	4679	7522.673253551635	5
0	4682	7524.740930664918	6
0	4685	7527.489750352289	5
0	4687	7529.511384895921	6
0	4690	7530.342677427755	5
0	4692	7530.710395172469	4
0	4694	7536.371525651514	3
0	4696	7540.271904336507	2
0	4698	7541.065303308553	3
0	4701	7543.444960788126	4
0	4704	7544.877453285174	3
0	4706	7546.646899085779	2
0	4708	7549.869025023277	3
0	4711	7560.460373007484	2
0	4713	7578.726326382859	3
0	4716	7581.27778288783	2
0	4718	7582.534822342643	3
0	4721	7585.280702690933	4
0	4724	7587.114698420921	5
0	4727	7587.385066659656	4
0	4729	7592.708552234172	5
0	4732	7596.184510798024	6
0	4735	7600.156003106205	5
0	4737	7601.099836100939	6
0	4740	7606.187648678457	5
0	4742	7610.001662907107	6
0	4745	7610.054121197138	7
0	4748	7612.283830300557	8
0	4750	7616.976811058238	7
0	4753	7618.570126499743	6
0	4755	7620.599437512288	7
0	4758	7621.752777049764	6
0	4760	7631.105580942461	5
0	4762	7631.668821454403	4
0	4764	7632.556018550487	5
0	4767	7633.851296869528	4
0	4769	7639.899222617687	3
0	4771	7642.051824976918	4
0	4774	7645.818568673845	3
0	4776	7655.782139881983	4
0	4779	7657.685472462368	5
0	4782	7660.439778945425	4
0	4784	7664.321605603887	5
0	4787	7664.388167399526	4
0	4789	7666.05606601211	3
0	4791	7698.524757403426	2
0	4793	7699.918214297443	1
0	4795	7702.86523639972	0
0	4797	7708.581041162672	1
0	4800	7724.53413337786	2
0	4803	7725.510151426362	3
0	4806	7732.465709373013	2
0	4808	7740.486792341869	1
0	4810	7743.556209030667	2
0	4813	7746.338143460178	1
0	4815	7750.789963870994	2
0	4818	7751.318233936604	1
0	4820	7754.752348973527	2
0	4823	7762.316173112953	1
0	4825	7762.832902089505	0
0	4827	7763.903624674746	1
0	4830	7765.022389005257	2
0	4833	7778.396300893581	3
0	4836	7779.878715197908	4
0	4839	7795.379992464502	3
0	4841	7800.977093385858	2
0	4843	7803.885416110029	1
0	4845	7809.95008144248	0
0	4847	7813.899674471847	1
0	4850	7816.650852624687	0
0	4852	7820.043497567465	1
0	4855	7824.608649378614	2
0	4858	7825.506459241307	3
0	4861	7826.162994849851	4
0	4864	7829.978327251466	3
0	4866	7834.307980256597	2
0	4868	7836.595547755313	3
0	4871	7854.193399031154	2
0	4873	7859.478041625846	3
0	4876	7865.013940359335	4
0	4879	7877.308446165518	3
0	4881	7880.515019880185	4
0	4884	7883.886597472422	3
0	4886	7884.503404314186	2
0	4888	7893.703939510202	3
0	4891	7898.492066461216	4
0	4894	7906.95997049022	5
0	4897	7907.617392659424	4
0	4899	7910.218802760461	5
0	4902	7919.549403761611	6
0	4905	7932.937803666152	5
0	4907	7934.079912081424	6
0	4910	7941.883775532382	7
0	4913	7942.81631255371	8
0	4915	7948.519030980603	7
0	4918	7951.991862102864	6
0	4920	7959.309376805786	5
0	4922	7971.718207456824	6
0	4925	7971.850972634331	5
0	4927	7976.178506993274	4
0	4929	7977.922609655584	5
0	4932	7980.599446247492	4
0	4934	7981.900922562684	3
0	4936	7982.151934185943	2
0	4938	7982.955949632587	3
0	4941	7983.715163704145	4
0	4944	7991.788229392524	3
0	4946	7997.110597680246	4
0	4949	8003.675967588183	5
0	4952	8004.21530330208	6
0	4955	8010.054917802753	7
0	4958	8010.999459309047	8
0	4960	8012.518824747662	9
0	4962	8014.609911298657	10
0	4964	8015.901181049401	11
0	4966	8020.9443746031	10
0	4969	8023.01876650715	9
0	4972	8023.583424462305	8
0	4975	8024.877066239133	7
0	4978	8025.903173660328	6
0	4980	8026.773683119704	5
0	4982	8031.17821729357	6
0	4985	8035.779293760869	5
0	4987	8049.280765223726	6
0	4990	8056.940414093871	5
0	4992	8059.907865463889	4
0	4994	8062.613895486767	3
0	4996	8069.17498022847	4
0	4999	8073.497596946741	3
0	5001	8075.171014232009	2
0	5003	8075.461562715021	3
0	5006	8078.755086709011	4
0	5009	8078.987181997459	3
0	5011	8090.47081194002	2
0	5013	8103.184108696258	3
0	5016	8125.705654565399	2
0	5018	8126.032365416071	3
0	5021	8136.991062735064	2
0	5023	8137.287067839048	3
0	5026	8140.004468795948	2
0	5028	8149.04111093726	3
0	5031	8155.657066511601	4
0	5034	8156.019727678715	5
0	5037	8163.159621048132	4
0	5039	8166.840227415004	5
0	5042	8174.48901885008	4
0	5044	8176.02274608469	3
0	5046	8179.539612602066	2
0	5048	8184.129950306449	3
0	5051	8184.382530769652	2
0	5053	8186.860659325183	3
0	5056	8191.320178136061	4
0	5059	8195.177377934526	5
0	5062	8205.054991078118	6
0	5065	8212.30100833787	5
0	5067	8212.48274143298	6
0	5070	8213.874708186325	7
0	5073	8215.575930050166	8
0	5075	8220.871763494322	7
0	5078	8222.362865225194	6
0	5080	8224.767796509683	5
0	5082	8224.773082018693	6
0	5085	8228.428734719906	7
0	5088	8231.479433595833	8
0	5090	8231.846847861432	9
0	5092	8238.962982893344	10
0	5094	8244.535894378103	11
0	5096	8245.560655555924	12
0	5098	8247.414755951866	13
0	5100	8255.963710140608	12
0	5103	8260.918423893756	13
0	5105	8260.963210541148	12
0	5108	8261.17514080602	11
0	5111	8267.069195944371	12
0	5113	8268.905002945557	13
0	5115	8274.28343605016	14
0	5117	8274.412132011543	15
0	5119	8279.070987511012	14
0	5122	8279.209665042421	13
0	5125	8281.450384523238	12
0	5128	8284.375549472848	13
0	5130	8285.265190333827	12
0	5133	8289.211521452484	11
0	5136	8294.49191244759	12
0	5138	8303.204369349477	11
0	5141	8313.825072016231	10
0	5144	8315.464605576616	9
0	5147	8318.404161705225	10
0	5149	8318.767228709024	11
0	5151	8320.774610571321	12
0	5153	8321.47635069535	13
0	5155	8322.409510242993	14
0	5157	8322.774804750834	15
0	5159	8323.326215145922	14
0	5162	8330.120730447554	13
0	5165	8330.400937205303	12
0	5168	8331.376309904818	11
0	5171	8336.523919604362	10
0	5174	8340.692940014501	9
0	5177	8349.397181512546	10
0	5179	8352.650332698075	11
0	5181	8356.0420575801	10
0	5184	8357.21212885109	11
0	5186	8357.355124823537	12
0	5188	8359.876386727852	11
0	5191	8363.424497467092	12
0	5193	8371.146380852629	11
0	5196	8376.123783795152	10
0	5199	8376.46946920574	11
0	5201	8379.211521410585	12
0	5203	8381.589550974467	11
0	5206	8392.659097935983	12
0	5208	8401.337020817034	13
0	5210	8404.181048231064	12
0	5213	8405.960038196335	11
0	5216	8408.761223911418	10
0	5219	8411.3348100779	9
0	5222	8411.413317683258	8
0	5225	8416.97631861069	9
0	5227	8419.843113629881	8
0	5230	8420.38747102706	9
0	5232	8421.806208066162	10
0	5234	8421.945842401558	11
0	5236	8428.727302146236	10
0	5239	8430.185384550986	9
0	5242	8431.551495840047	8
0	5245	8433.059386952331	7
0	5248	8434.331756660077	8
0	5250	8455.325982323951	9
0	5252	8458.380191689829	10
0	5254	8461.603900723375	11
0	5256	8462.24491058914	10
0	5259	8464.482614700097	11
0	5261	8465.479861086329	10
0	5264	8466.394906871934	9
0	5267	8468.267842549921	10
0	5269	8468.87577565768	11
0	5271	8474.358954720564	12
0	5273	8476.582463810323	11
0	5276	8479.578700969375	12
0	5278	8480.185244082981	11
0	5281	8488.987450117202	10
0	5284	8494.046478238446	9
0	5287	8496.496336511711	10
0	5289	8497.499069006947	11
0	5291	8514.083832660273	12
0	5293	8514.250843439422	11
0	5296	8517.130701689962	12
0	5298	8521.810267938601	11
0	5301	8524.490178700945	10
0	5304	8526.930859984446	9
0	5307	8529.024658500161	10
0	5309	8531.858560183071	9
0	5312	8534.490644193688	8
0	5315	8536.261271757244	7
0	5318	8536.373449007725	8
0	5320	8537.239687629176	7
0	5323	8541.945963861739	6
0	5325	8547.949881154288	5
0	5327	8550.354822026933	4
0	5329	8572.970401039075	5
0	5332	8574.852897645227	4
0	5334	8578.383506607554	5
0	5337	8578.70802012517	4
0	5339	8579.074846198665	3
0	5341	8586.371895758987	4
0	5344	8586.689859168763	5
0	5347	8586.885404955945	6
0	5350	8599.453640819495	7
0	5353	8600.030177546587	8
0	5355	8605.985023499887	9
0	5357	8609.180665800915	8
0	5360	8610.126334641212	9
0	5362	8613.349962202329	8
0	5365	8619.734533288786	7
0	5368	8626.948022640387	8
0	5370	8636.659307941038	9
0	5372	8639.086759367288	8
0	5375	8641.068477139423	7
0	5378	8648.161506388387	8
0	5380	8650.848329158812	9
0	5382	8653.293085890983	10
0	5384	8656.895571624846	9
0	5387	8659.452074375629	8
0	5390	8660.37687822254	9
0	5392	8664.001378188789	8
0	5395	8664.520738433323	9
0	5397	8673.09615726648	8
0	5400	8680.663333290611	9
0	5402	8685.316198329245	8
0	5405	8694.902112394281	9
0	5407	8697.384269269417	8
0	5410	8699.233500618525	9
0	5412	8701.226945363777	8
0	5415	8703.123682439851	9
0	5417	8704.532837136745	8
0	5420	8705.741830354465	7
0	5423	8707.267093270611	6
0	5425	8707.350299870948	5
0	5427	8713.200172216125	6
0	5430	8714.709705238554	5
0	5432	8715.668490558136	6
0	5435	8719.933788882143	7
0	5438	8721.215382791963	8
0	5440	8725.646580021756	7
0	5443	8726.023178900191	6
0	5445	8732.563087327505	5
0	5447	8733.039329245366	4
0	5449	8733.676155989691	5
0	5452	8733.857446786437	6
0	5455	8735.712361091563	5
0	5457	8736.972055220214	6
0	5460	8746.282719369704	7
0	5463	8747.829504467832	6
0	5465	8748.608384193885	5
0	5467	8753.670867818619	4
0	5469	8772.013887982204	5
0	5472	8773.842583109453	6
0	5475	8774.204496657579	5
0	5477	8782.8013261639	4
0	5479	8783.531821901131	3
0	5481	8784.333065379557	4
0	5484	8794.04626514195	5
0	5487	8800.350881095122	6
0	5490	8804.797017294151	5
0	5492	8808.566368325163	6
0	5495	8810.553576733795	7
0	5498	8814.609676844236	6
0	5500	8818.981592708224	5
0	5502	8823.391043140137	4
0	5504	8825.025734430626	5
0	5507	8838.504998295489	4
0	5509	8848.216950827911	5
0	5512	8852.191021606071	4
0	5514	8868.119475543663	3
0	5516	8876.872631012778	4
0	5519	8881.673643505466	3
0	5521	8885.871518047376	2
0	5523	8886.813139405224	1
0	5525	8886.884119263623	2
0	5528	8888.543552762519	3
0	5531	8895.63181183261	4
0	5534	8897.359371792169	3
0	5536	8915.93329310369	4
0	5539	8919.449029240867	5
0	5542	8921.743410307779	4
0	5544	8924.228168593812	3
0	5546	8936.401732101537	4
0	5549	8945.630463763008	5
0	5552	8948.159548419016	6
0	5555	8959.490725265497	7
0	5558	8960.13325349374	6
0	5560	8960.423889673822	5
0	5562	8960.487007363877	4
0	5564	8961.309274590155	5
0	5567	8965.802772940264	6
0	5570	8969.307567607547	5
0	5572	8977.528742764376	4
0	5574	8978.227644671697	3
0	5576	8987.026742604711	2
0	5578	8996.480744961017	3
0	5581	8996.997730794091	4
0	5584	8999.01888348417	3
0	5586	9001.522215734471	2
0	5588	9042.260067625929	1
0	5590	9045.019449598057	2
0	5593	9052.162022515584	3
0	5596	9053.278275017196	4
0	5599	9057.625474193292	5
0	5602	9068.629943496391	4
0	5604	9075.552699126838	3
0	5606	9078.039506030123	4
0	5609	9083.418922945996	3
0	5611	9112.238326339072	4
0	5614	9115.759678472097	5
0	5617	9118.516302153799	6
0	5620	9119.057772191945	7
0	5623	9119.52341515487	6
0	5625	9123.435039210194	7
0	5628	9125.963371275784	6
0	5630	9126.042879771513	5
0	5632	9134.307408405227	4
0	5634	9135.608557372939	3
0	5636	9137.763958756746	2
0	5638	9142.542294393719	3
0	5641	9143.534506943114	4
0	5644	9143.915212055036	5
0	5647	9147.454616922432	6
0	5650	9148.645636085588	7
0	5653	9149.161659789184	6
0	5655	9151.800306665034	5
0	5657	9154.57704788604	6
0	5660	9154.758060669853	5
0	5662	9163.859020551577	4
0	5664	9165.167000288357	3
0	5666	9165.220446613074	2
0	5668	9176.614468412499	3
0	5671	9187.028793754908	2
0	5673	9187.311205378527	1
0	5675	9187.483358896255	2
0	5678	9188.016865960694	3
0	5681	9197.192011120965	4
0	5684	9206.1961868137	3
0	5686	9215.951442261611	2
0	5688	9217.837424370851	3
0	5691	9222.701224730762	4
0	5694	9228.44572758223	3
0	5696	9232.623922036075	4
0	5699	9236.56240416512	5
0	5702	9238.002258421539	4
0	5704	9241.324714814813	3
0	5706	9243.713550989515	2
0	5708	9257.163121123959	3
0	5711	9266.544223714902	4
0	5714	9271.898347697772	3
0	5716	9276.745294288848	4
0	5719	9277.164087604098	5
0	5722	9278.660444856947	6
0	5725	9279.029988811352	7
0	5728	9280.544083288846	8
0	5730	9283.287341755924	9
0	5732	9285.485608168988	10
0	5734	9291.012598733198	9
0	5737	9291.715380615651	10
0	5739	9296.903823109496	9
0	5742	9297.191985632462	8
0	5745	9299.232259743728	7
0	5748	9300.875085391205	6
0	5750	9301.093297298533	5
0	5752	9303.129560741883	4
0	5754	9306.045518689867	5
0	5757	9307.40961263639	6
0	5760	9311.133696161656	5
0	5762	9311.589978387035	6
0	5765	9311.72697868929	7
0	5768	9326.486710086205	6
0	5770	9332.894124042478	5
0	5772	9333.109298551177	6
0	5775	9338.866024369933	7
0	5778	9339.181309565989	8
0	5780	9339.671114121146	9
0	5782	9348.679020349039	10
0	5784	9351.438052923181	9
0	5787	9352.06014355163	10
0	5789	9353.223623086856	9
0	5792	9355.047578072693	8
0	5795	9355.194601517262	7
0	5798	9357.185587749734	6
0	5800	9357.415372928619	7
0	5803	9359.581688719688	8
0	5805	9361.37357089193	9
0	5807	9361.433438645072	8
0	5810	9361.563757508532	7
0	5813	9365.5491767609	8
0	5815	9366.401387354096	7
0	5818	9373.456171579337	6
0	5820	9375.36251683726	7
0	5823	9376.064881270922	6
0	5825	9386.78398363846	5
0	5827	9391.501076311322	6
0	5830	9395.462140855301	7
0	5833	9399.615015543367	6
0	5835	9400.50550909193	7
0	5838	9403.176704734349	6
0	5840	9408.589898196368	7
0	5843	9419.584815064478	8
0	5845	9424.035627618704	9
0	5847	9424.227776042381	8
0	5850	9425.486630028768	7
0	5853	9425.641765203902	8
0	5855	9428.38491507358	9
0	5857	9431.652561816592	10
0	5859	9434.272716933132	11
0	5861	9455.877565880403	12
0	5863	9460.253056893582	11
0	5866	9461.936341423897	12
0	5868	9463.193123589328	13
0	5870	9463.630571214801	14
0	5872	9465.156460407232	15
0	5874	9469.796436232214	14
0	5877	9472.027359227955	15
0	5879	9473.468821796604	14
0	5882	9476.662528375024	13
0	5885	9477.109928018066	14
0	5887	9477.504489275335	15
0	5889	9481.653960899076	16
0	5891	9482.633331165568	15
0	5894	9485.496367257254	14
0	5897	9489.075689622618	15
0	5899	9491.506483013007	16
0	5901	9492.522877530328	15
0	5904	9494.120074805508	16
0	5906	9497.823060243033	17
0	5908	9501.498688176038	16
0	5911	9502.799942160663	17
0	5913	9509.903350078102	18
0	5915	9510.145564584087	17
0	5918	9516.558868145316	16
0	5921	9527.980106469999	17
0	5923	9532.950138457396	18
0	5925	9534.159460601417	17
0	5928	9534.183120087975	16
0	5931	9535.627507525221	15
0	5934	9538.665182511075	16
0	5936	9540.330994977941	17
0	5938	9540.968238032657	18
0	5940	9542.220180124902	17
0	5943	9543.090122909306	18
0	5945	9543.934380709251	19
0	5947	9545.759549287117	18
0	5950	9551.362391667202	17
0	5953	9552.031612906439	18
0	5955	9554.064401119831	17
0	5958	9556.966870266762	18
0	5960	9558.571837630481	17
0	5963	9559.424315013433	16
0	5966	9561.801980942284	15
0	5969	9562.244848756599	16
0	5971	9563.236730971931	15
0	5974	9564.836136413192	14
0	5977	9565.935060687268	13
0	5980	9567.396048088379	12
0	5983	9567.70078505558	11
0	5986	9572.230417671796	12
0	5988	9583.136173916834	11
0	5991	9585.998465730215	10
0	5994	9587.948909372101	11
0	5996	9588.269914158938	12
0	5998	9588.280615632726	13
0	6000	9593.961807505096	12
0	6003	9604.111597460379	13
0	6005	9604.935852860812	12
0	6008	9605.543976408008	11
0	6011	9615.304629781503	10
0	6014	9616.063529813039	9
0	6017	9620.008318605479	8
0	6020	9622.96598134578	7
0	6023	9623.116156728038	6
0	6025	9631.746650687647	7
0	6028	9631.955863004514	6
0	6030	9638.272296876446	7
0	6033	9639.41721054362	6
0	6035	9639.7408636354	7
0	6038	9645.772927629072	8
0	6040	9646.42745217961	9
0	6042	9651.791770913745	8
0	6045	9652.425719932798	7
0	6048	9652.441465481177	6
0	6050	9653.484908551431	5
0	6052	9656.043148289474	4
0	6054	9657.871823315944	3
0	6056	9659.267026017357	2
0	6058	9659.342084666076	3
0	6061	9660.644474946647	2
0	6063	9662.002316294145	3
0	6066	9666.870828740456	4
0	6069	9668.092725376581	3
0	6071	9668.095754141022	4
0	6074	9670.426852878329	3
0	6076	9673.400996398828	2
0	6078	9682.456429612698	1
0	6080	9689.869701843	0
0	6082	9690.616087590065	1
0	6085	9691.400214387461	2
0	6088	9693.847061260752	3
0	6091	9698.465340685501	4
0	6094	9699.484737306357	5
0	6097	9700.39376887863	6
0	6100	9708.727725544577	7
0	6103	9712.118749386372	6
0	6105	9713.423239955504	5
0	6107	9716.346262218347	4
0	6109	9717.540370659182	5
0	6112	9722.23753586205	4
0	6114	9725.845144596009	3
0	6116	9727.893591008415	4
0	6119	9739.990190910852	3
0	6121	9741.900782522642	2
0	6123	9746.476773561904	1
0	6125	9746.591492256197	2
0	6128	9747.876494182498	3
0	6131	9748.864763582748	2
0	6133	9750.254140671222	3
0	6136	9754.374794491116	4
0	6139	9754.58125156366	3
0	6141	9756.783036720029	4
0	6144	9757.808384988306	5
0	6147	9760.08704784473	4
0	6149	9761.229183355103	3
0	6151	9767.680434710872	2
0	6153	9771.132025978617	3
0	6156	9792.173464484383	2
0	6158	9797.214479483266	3
0	6161	9809.672444912361	4
0	6164	9810.334461773249	5
0	6167	9818.534343200064	4
0	6169	9823.88946262206	5
0	6172	9827.604089238954	4
0	6174	9832.407481708316	3
0	6176	9834.486076757193	4
0	6179	9839.325994459704	5
0	6182	9839.451769322512	6
0	6185	9842.629853886534	7
0	6188	9844.592670058889	8
0	6190	9850.577176186712	9
0	6192	9851.324589034388	10
0	6194	9853.831268882153	11
0	6196	9861.291233758697	12
0	6198	9863.831529440422	11
0	6201	9878.78619056975	12
0	6203	9881.809839082211	11
0	6206	9887.390021340084	10
0	6209	9893.854267351916	11
0	6211	9895.448005640342	10
0	6214	9901.614380541959	11
0	6216	9904.545134790613	10
0	6219	9906.698551890562	11
0	6221	9925.58583385831	12
0	6223	9927.49400325673	13
0	6225	9927.91585488297	12
0	6228	9932.038482854662	13
0	6230	9936.941880530157	12
0	6233	9938.81162100427	11
0	6236	9943.184078826727	12
0	6238	9944.180394783207	13
0	6240	9946.863007191447	14
0	6242	9954.211683302432	13
0	6245	9959.810408014265	14
0	6247	9963.124705783549	15
0	6249	9975.783438307668	14
0	6252	9976.922427161462	13
0	6255	9980.558773638265	12
0	6258	9980.777385784023	13
0	6260	9982.39081555563	12
0	6263	9987.56535888492	11
0	6266	9988.111688608285	12
0	6268	9999.52193563463	11
0	6271	10001.344964966663	12
0	6273	10001.440959510826	11
0	6276	10002.316772172405	10
0	6279	10002.753394692001	9
0	6282	10006.756060990591	8
0	6285	10009.619130253119	9
0	6287	10011.662675766901	8
0	6290	10012.217784961833	9
0	6292	10013.201480773574	8
0	6295	10015.19743141554	9
0	6297	10018.835006233014	8
0	6300	10024.992963591516	9
0	6302	10024.997701356165	10
0	6304	10026.371747987012	11
0	6306	10027.334842169718	10
0	6309	10030.178816788172	11
0	6311	10031.886060002359	10
0	6314	10034.53725140838	11
0	6316	10038.204164754271	12
0	6318	10044.384099791106	11
0	6321	10047.554066075105	10
0	6324	10052.295134940997	11
0	6326	10058.719086167408	10
0	6329	10060.840336956184	9
0	6332	10064.890010279441	8
0	6335	10066.008686882325	9
0	6337	10071.644978379688	10
0	6339	10079.002618989543	11
0	6341	10079.268342231948	10
0	6344	10083.978655933103	9
0	6347	10087.026855038528	10
0	6349	10091.356011290811	11
0	6351	10093.463803253656	10
0	6354	10097.421659698791	11
0	6356	10106.24315145326	12
0	6358	10116.480216773916	11
0	6361	10118.595767038196	10
0	6364	10119.076815878203	11
0	6366	10121.621202541449	10
0	6369	10134.099023318299	9
0	6372	10136.079069118682	8
0	6375	10136.350432111905	9
0	6377	10145.970854263235	8
0	6380	10146.262948915976	9
0	6382	10147.509881547502	10
0	6384	10148.973017133304	11
0	6386	10149.722407381527	12
0	6388	10152.483745699281	13
0	6390	10154.877177455944	12
0	6393	10158.903961136368	13
0	6395	10161.162945371038	14
0	6397	10161.794118999832	13
0	6400	10161.896902486115	14
0	6402	10176.829434474021	13
0	6405	10177.885289009133	12
0	6408	10180.819298329793	11
0	6411	10183.167269840782	10
0	6414	10187.010787119612	9
0	6417	10187.763196429265	8
0	6420	10191.134380385632	9
0	6422	10191.700186489032	10
0	6424	10196.264191788544	11
0	6426	10199.055080989881	10
0	6429	10204.352686958868	11
0	6431	10204.868565225916	10
0	6434	10205.434146690422	11
0	6436	10208.178549327954	12
0	6438	10221.888160451547	13
0	6440	10224.038553028642	14
0	6442	10236.737753721417	13
0	6445	10239.797519995538	12
0	6448	10239.901259223651	11
0	6451	10244.828049726979	12
0	6453	10245.943810430671	13
0	6455	10246.626931387783	12
0	6458	10255.212136929038	11
0	6461	10260.367255450954	12
0	6463	10263.944028926537	11
0	6466	10264.912676680445	12
0	6468	10270.004237550118	13
0	6470	10271.456283109615	12
0	6473	10280.841563804966	11
0	6476	10287.339866949742	12
0	6478	10290.646297993479	13
0	6480	10292.541532978274	12
0	6483	10293.216673283123	13
0	6485	10299.475900049221	12
0	6488	10307.239356497735	11
0	6491	10308.565390191908	10
0	6494	10310.149383284233	9
0	6497	10310.270252403154	8
0	6500	10331.747264308645	7
0	6503	10340.523383116998	6
0	6505	10346.284474735652	7
0	6508	10347.436480339771	6
0	6510	10350.906925405056	5
0	6512	10351.751568587106	6
0	6515	10352.448725296371	5
0	6517	10355.794927199446	6
0	6520	10357.298179499955	5
0	6522	10362.105543499881	6
0	6525	10362.242807115154	5
0	6527	10364.212720144857	4
0	6529	10367.394813153433	5
0	6532	10370.665626908183	6
0	6535	10371.480825570639	5
0	6537	10372.593712247715	6
0	6540	10374.678767777751	5
0	6542	10377.220279373237	4
0	6544	10386.548715787268	3
0	6546	10389.760985099236	2
0	6548	10392.029656604158	3
0	6551	10398.086157260955	2
0	6553	10404.323103334654	3
0	6556	10406.067854157843	4
0	6559	10406.313034802775	3
0	6561	10411.571554809471	4
0	6564	10421.764599598749	5
0	6567	10426.391952819698	6
0	6570	10433.251991875614	7
0	6573	10435.577605617888	6
0	6575	10436.189119014605	5
0	6577	10443.592303143481	6
0	6580	10449.903499176406	7
0	6583	10450.781463428001	8
0	6585	10454.054599743666	7
0	6588	10454.406958154594	8
0	6590	10455.341780715738	7
0	6593	10457.482191240921	6
0	6595	10458.073545060121	5
0	6597	10462.931571141324	4
0	6599	10465.748107865241	3
0	6601	10469.584383080153	4
0	6604	10482.109526200649	5
0	6607	10490.901043307906	4
0	6609	10490.979858574249	5
0	6612	10492.732941021992	4
0	6614	10492.76058538077	3
0	6616	10494.778952225493	4
0	6619	10503.067229065379	5
0	6622	10509.138504880721	6
0	6625	10515.370586274812	7
0	6628	10515.795284559414	6
0	6630	10517.298667926636	5
0	6632	10518.501610073829	4
0	6634	10520.983888277007	3
0	6636	10530.150813750703	4
0	6639	10543.222181153916	5
0	6642	10558.222161211391	4
0	6644	10566.936620046012	3
0	6646	10569.191659369068	2
0	6648	10572.018071745148	3
0	6651	10578.666275034721	2
0	6653	10580.535627145978	3
0	6656	10587.894766061761	4
0	6659	10587.949847075652	5
0	6662	10589.073299421342	6
0	6665	10595.349002367021	5
0	6667	10602.938907249585	4
0	6669	10610.771149175514	3
0	6671	10619.028131671347	4
0	6674	10632.162318507842	5
0	6677	10633.358009756299	4
0	6679	10636.70309482733	5
0	6682	10640.600719902805	4
0	6684	10641.225141354071	3
0	6686	10647.094727398097	4
0	6689	10649.48012027442	3
0	6691	10653.594160530441	4
0	6694	10655.249121064809	5
0	6697	10663.775574632364	6
0	6700	10664.45449071908	5
0	6702	10668.702196817333	4
0	6704	10680.039797549897	5
0	6707	10687.297865409953	4
0	6709	10694.749198632572	5
0	6712	10698.93609950922	4
0	6714	10713.061660490364	3
0	6716	10720.560396947222	2
0	6718	10726.737370161428	3
0	6721	10732.263341798944	4
0	6724	10733.310428178038	3
0	6726	10735.24082354033	2
0	6728	10736.034093025802	3
0	6731	10738.272207766904	4
0	6734	10741.402038643075	5
0	6737	10748.238785212578	4
0	6739	10753.012351164197	5
0	6742	10753.66150937124	4
0	6744	10758.185871031391	5
0	6747	10760.429221813381	4
0	6749	10761.817968682136	5
0	6752	10766.678935960531	6
0	6755	10767.726210367455	7
0	6758	10771.190203256689	6
0	6760	10774.076625320015	7
0	6763	10780.09638432834	8
0	6765	10785.926537275178	9
0	6767	10787.297616714939	10
0	6769	10788.805187503366	9
0	6772	10802.454940526426	8
0	6775	10804.043847968875	9
0	6777	10808.189769879588	10
0	6779	10810.669654239953	9
0	6782	10815.297415012997	8
0	6785	10817.884883709364	9
0	6787	10820.70435301196	10
0	6789	10821.496799728794	11
0	6791	10823.689609730342	10
0	6794	10828.946000996009	9
0	6797	10829.22475443407	10
0	6799	10831.331684540733	11
0	6801	10832.863239603961	10
0	6804	10834.780278923746	11
0	6806	10837.635044448002	10
0	6809	10838.321987716322	11
0	6811	10842.222730082143	12
0	6813	10844.398157247153	11
0	6816	10845.309439259665	10
0	6819	10850.792237484701	11
0	6821	10851.154479060931	10
0	6824	10852.403788722736	9
0	6827	10853.25357685399	10
0	6829	10861.05758165521	9
0	6832	10863.11322057701	10
0	6834	10868.199151417915	9
0	6837	10870.383090038984	10
0	6839	10875.66216403233	11
0	6841	10898.017208718228	10
0	6844	10904.722469028777	9
0	6847	10905.350658963649	10
0	6849	10906.200680435238	9
0	6852	10909.698827464129	8
0	6855	10910.408121128755	7
0	6858	10910.548508201186	8
0	6860	10917.132827773051	7
0	6863	10919.235998429308	8
0	6865	10920.459557992241	9
0	6867	10921.15251253509	8
0	6870	10923.094954246576	9
0	6872	10928.736278210183	10
0	6874	10932.079616094898	11
0	6876	10935.460122205507	10
0	6879	10936.098110361891	9
0	6882	10936.555715927213	10
0	6884	10941.2678712882	11
0	6886	10946.642080774779	10
0	6889	10947.329521796114	9
0	6892	10954.097610124897	10
0	6894	10961.809630647941	9
0	6897	10965.756235337106	8
0	6900	10966.637523544843	7
0	6903	10968.473223024293	6
0	6905	10968.907978903162	5
0	6907	10970.909341808002	4
0	6909	10981.74936947657	5
0	6912	10985.744023087565	4
0	6914	10993.532820058387	5
0	6917	10995.6781868209	6
0	6920	10998.905052666389	5
0	6922	10999.864687216443	4
0	6924	11001.941801006257	5
0	6927	11011.661205288099	4
0	6929	11011.831675528552	5
0	6932	11012.581597946797	6
0	6935	11014.198974661687	5
0	6937	11015.339616314449	4
0	6939	11016.98592342433	5
0	6942	11024.503045037199	4
0	6944	11037.453570676833	5
0	6947	11040.572111668012	4
0	6949	11041.232703749534	3
0	6951	11041.446912816709	4
0	6954	11044.233590426926	3
0	6956	11046.197815782241	4
0	6959	11046.457396755533	5
0	6962	11047.451660181183	6
0	6965	11051.955262903608	7
0	6968	11053.083506970824	8
0	6970	11057.225475950001	7
0	6973	11060.250953679349	6
0	6975	11064.589501257859	5
0	6977	11065.989099660213	4
0	6979	11066.937192558887	5
0	6982	11070.876326929038	4
0	6984	11077.624354973971	5
0	6987	11084.82884301779	4
0	6989	11088.218980231577	5
0	6992	11088.738123362077	6
0	6995	11089.750776967602	5
0	6997	11090.723989060212	4
0	6999	11091.439837784183	3
0	7001	11096.829205754066	4
0	7004	11102.108419615166	5
0	7007	11106.702592257357	4
0	7009	11114.979766733848	3
0	7011	11119.737641219316	4
0	7014	11128.31124169627	3
0	7016	11137.9684301558	4
0	7019	11142.015014135399	3
0	7021	11143.285703071231	4
0	7024	11144.161363896778	3
0	7026	11153.392454814158	4
0	7029	11158.30143912896	3
0	7031	11162.884346557783	4
0	7034	11167.958602972411	5
0	7037	11171.809795337561	6
0	7040	11172.183201485672	7
0	7043	11175.676090567783	6
0	7045	11179.850184208065	5
0	7047	11186.364297973991	6
0	7050	11193.198934333159	7
0	7053	11203.044274034034	6
0	7055	11207.922751056789	5
0	7057	11209.280182370039	4
0	7059	11211.856302523715	5
0	7062	11214.474047881156	4
0	7064	11221.552729842451	3
0	7066	11224.029011302594	2
0	7068	11224.240211025376	3
0	7071	11225.276666073134	2
0	7073	11228.885044967791	1
0	7075	11230.77771087806	2
0	7078	11234.825371511627	3
0	7081	11237.325758906688	4
0	7084	11237.834352390637	5
0	7087	11238.605078343108	4
0	7089	11239.900400974771	5
0	7092	11245.41823934823	6
0	7095	11247.741920319211	5
0	7097	11250.163530907347	6
0	7100	11251.686065319639	5
0	7102	11254.830332809034	6
0	7105	11262.186556802362	7
0	7108	11262.766374278026	6
0	7110	11263.214123739003	5
0	7112	11267.16430511947	6
0	7115	11268.605914807225	7
0	7118	11273.133932838769	8
0	7120	11274.736989143991	7
0	7123	11281.74466877794	8
0	7125	11283.462730234952	9
0	7127	11295.988281950721	8
0	7130	11298.239598055592	7
0	7133	11302.585047091426	6
0	7135	11312.434473381897	5
0	7137	11317.790085844883	4
0	7139	11318.394920970717	5
0	7142	11320.027613304772	6
0	7145	11320.16998784148	7
0	7148	11320.172695867778	6
0	7150	11320.548128227319	5
0	7152	11330.020246163919	6
0	7155	11332.77633877016	7
0	7158	11333.596489424395	6
0	7160	11335.516841335121	5
0	7162	11335.934889777805	4
0	7164	11340.629825479248	5
0	7167	11345.59178697317	4
0	7169	11357.300045634221	3
0	7171	11365.084750667127	4
0	7174	11370.871417799651	5
0	7177	11373.378581302181	4
0	7179	11374.522035392152	3
0	7181	11375.845432498208	2
0	7183	11376.854406712542	1
0	7185	11380.018748962183	0
0	7187	11387.937187477358	1
0	7190	11390.48683097129	2
0	7193	11400.323965512682	3
0	7196	11404.454109778243	4
0	7199	11416.116845387582	5
0	7202	11423.575624340559	6
0	7205	11423.967267504494	7
0	7208	11426.013551305026	6
0	7210	11430.526321399278	5
0	7212	11441.957846272058	4
0	7214	11443.144365315358	5
0	7217	11451.400016272977	4
0	7219	11452.0197390197	5
0	7222	11454.125016474843	6
0	7225	11455.425694965721	5
0	7227	11457.077539198021	4
0	7229	11457.118237297078	3
0	7231	11459.06610085028	2
0	7233	11471.978998622085	3
0	7236	11473.550239099303	4
0	7239	11481.834413885554	5
0	7242	11491.444365639117	4
0	7244	11493.526557160138	5
0	7247	11494.781808922631	6
0	7250	11500.215885502347	5
0	7252	11502.905337385672	6
0	7255	11507.667766976527	7
0	7258	11511.734918112769	8
0	7260	11517.522379103476	7
0	7263	11518.00561403708	6
0	7265	11519.552820336427	5
0	7267	11532.018259680197	6
0	7270	11533.602475686259	7
0	7273	11540.872444994015	6
0	7275	11542.011032735857	5
0	7277	11546.403113348174	4
0	7279	11548.338667444327	3
0	7281	11553.413207088333	4
0	7284	11556.251071244553	3
0	7286	11571.319654127758	2
0	7288	11574.603996551289	1
0	7290	11596.764341303753	2
0	7293	11599.935400357537	3
0	7296	11601.335301731995	2
0	7298	11609.697922524783	3
0	7301	11618.256773533454	4
0	7304	11619.582188285623	3
0	7306	11626.287094229216	4
0	7309	11629.687819024177	5
0	7312	11632.886741564085	6
0	7315	11633.083204012308	5
0	7317	11638.331583184588	4
0	7319	11644.366035347468	3
0	7321	11644.446188800694	4
0	7324	11651.887720940625	5
0	7327	11657.220208480057	4
0	7329	11658.62316534828	3
0	7331	11658.642591456806	4
0	7334	11666.014458827797	3
0	7336	11667.673728701753	4
0	7339	11670.049275312919	5
0	7342	11677.031541688806	6
0	7345	11677.195481266185	7
0	7348	11678.356719473643	6
0	7350	11679.745878984235	7
0	7353	11688.901562951402	8
0	7355	11696.317020802864	7
0	7358	11700.059982529235	6
0	7360	11701.280615142252	7
0	7363	11701.957440467056	8
0	7365	11704.055533673189	7
0	7368	11704.163524471361	8
0	7370	11708.485728173382	7
0	7373	11711.431769769223	6
0	7375	11714.394452721133	7
0	7378	11721.625704581921	6
0	7380	11723.363585195912	5
0	7382	11725.477315351191	6
0	7385	11726.603392593923	7
0	7388	11727.199452265708	8
0	7390	11730.685443707288	9
0	7392	11732.070101725552	10
0	7394	11735.896431144447	9
0	7397	11738.261174099676	8
0	7400	11739.040393966085	7
0	7403	11740.966095689516	6
0	7405	11743.24149475142	5
0	7407	11743.301311087587	6
0	7410	11745.987120666835	5
0	7412	11749.700648946611	6
0	7415	11753.632243935551	5
0	7417	11756.325109563188	4
0	7419	11757.201215160336	5
0	7422	11765.036966771198	6
0	7425	11766.234184748504	7
0	7428	11767.444699573533	6
0	7430	11770.817704215709	5
0	7432	11775.992435052211	4
0	7434	11782.068897588415	5
0	7437	11784.355503319862	6
0	7440	11784.40519231945	7
0	7443	11802.190474299384	6
0	7445	11803.955426190711	5
0	7447	11804.273701622145	6
0	7450	11805.944103641643	5
0	7452	11806.082507504273	6
0	7455	11810.890393784795	7
0	7458	11812.714980590483	6
0	7460	11814.015482956841	5
0	7462	11814.501951995231	4
0	7464	11817.622754957931	3
0	7466	11819.241304610794	2
0	7468	11831.822669574156	3
0	7471	11837.559786056006	4
0	7474	11839.272824389447	3
0	7476	11847.859106080918	4
0	7479	11849.284533285108	5
0	7482	11855.383302793226	6
0	7485	11856.675764078263	5
0	7487	11859.382191344608	4
0	7489	11862.690337126123	5
0	7492	11867.058312702755	6
0	7495	11876.262084346913	5
0	7497	11878.537524286866	4
0	7499	11878.984969599044	5
0	7502	11881.606102616521	6
0	7505	11884.571424362268	5
0	7507	11900.067105360717	4
0	7509	11915.357636785837	5
0	7512	11916.342263213439	6
0	7515	11917.543171005838	7
0	7518	11920.650334381686	8
0	7520	11920.678496442049	7
0	7523	11927.25162294186	6
0	7525	11928.566806062505	7
0	7528	11929.961426582609	6
0	7530	11932.173916976201	5
0	7532	11933.045268301601	6
0	7535	11933.211189642486	7
0	7538	11936.644083011257	6
0	7540	11937.00395333445	5
0	7542	11940.994424374024	4
0	7544	11950.89418088783	5
0	7547	11956.064862436486	6
0	7550	11960.791725081012	5
0	7552	11965.544198427008	6
0	7555	11966.807189318842	5
0	7557	11967.311572554648	6
0	7560	11968.138330757785	5
0	7562	11972.817563183077	4
0	7564	11976.793657862556	5
0	7567	11978.717202092903	6
0	7570	11980.304892843156	5
0	7572	11993.789155320395	4
0	7574	11993.986152582961	3
0	7576	11999.485647393357	4
0	7579	11999.807198597695	5
0	7582	12002.386978298434	4
0	7584	12005.829943874019	5
0	7587	12012.354792581874	4
0	7589	12013.916726885295	3
0	7591	12014.070105203078	4
0	7594	12015.500981217313	3
0	7596	12020.521487700173	4
0	7599	12020.871267810729	3
0	7601	12023.379067635143	2
0	7603	12031.256484741263	1
0	7605	12036.493590869737	0
0	7607	12039.506911362897	1
0	7610	12050.467554852122	2
0	7613	12051.893726214592	1
0	7615	12051.95708676676	2
0	7618	12058.622643798054	3
0	7621	12066.652438505965	4
0	7624	12068.753431278989	3
0	7626	12072.520485496435	4
0	7629	12080.618800015419	5
0	7632	12084.192789777119	4
0	7634	12088.550058885919	5
0	7637	12090.586500797646	4
0	7639	12093.060907781551	5
0	7642	12093.075175893031	4
0	7644	12096.759670808765	5
0	7647	12101.854504376193	4
0	7649	12111.900998191536	5
0	7652	12115.709052719674	4
0	7654	12119.155505425072	3
0	7656	12120.484103274627	2
0	7658	12121.069453595263	3
0	7661	12126.686326241711	2
0	7663	12138.534112402769	3
0	7666	12143.087051028325	4
0	7669	12153.554371848759	3
0	7671	12153.842260865618	2
0	7673	12157.275116946795	3
0	7676	12162.547331564447	4
0	7679	12163.646076446811	5
0	7682	12164.208462641334	6
0	7685	12165.797147898624	5
0	7687	12166.065714582871	4
0	7689	12167.134158936995	5
0	7692	12173.962498791347	4
0	7694	12178.642238595673	3
0	7696	12179.222532835891	2
0	7698	12186.832428533756	3
0	7701	12186.885586379256	4
0	7704	12197.064637392644	5
0	7707	12199.60915607253	6
0	7710	12201.749987066793	5
0	7712	12203.179380092612	4
0	7714	12204.217611734142	5
0	7717	12206.139700163512	6
0	7720	12208.033099105611	5
0	7722	12209.765384489068	6
0	7725	12209.800529988687	5
0	7727	12209.811481704045	6
0	7730	12212.663904483402	7
0	7733	12214.752214692177	6
0	7735	12222.702129367119	5
0	7737	12226.395623421977	4
0	7739	12229.751083154814	5
0	7742	12231.461241949843	4
0	7744	12232.339023241126	5
0	7747	12233.895613084628	4
0	7749	12241.04764068974	5
0	7752	12242.656705557309	4
0	7754	12251.291896198831	5
0	7757	12260.935914493004	6
0	7760	12263.343877222568	7
0	7763	12268.487466935701	6
0	7765	12269.014462329025	5
0	7767	12286.689433673985	6
0	7770	12287.699224398814	5
0	7772	12301.960381892176	6
0	7775	12302.03584347873	5
0	7777	12302.745373983469	4
0	7779	12308.502059244402	3
0	7781	12309.223149783297	2
0	7783	12309.71315880478	3
0	7786	12311.296020854558	4
0	7789	12315.664506872259	5
0	7792	12315.981544547458	4
0	7794	12322.788080688959	3
0	7796	12332.719032441352	4
0	7799	12333.106594039781	5
0	7802	12334.863303821311	4
0	7804	12338.236613906517	3
0	7806	12344.816598963683	2
0	7808	12356.025167240747	3
0	7811	12356.289312087612	4
0	7814	12372.153752754111	3
0	7816	12373.463532299915	4
0	7819	12380.976853831743	5
0	7822	12381.620924596297	4
0	7824	12402.518974690239	3
0	7826	12404.718618764795	4
0	7829	12404.728725134207	5
0	7832	12407.407963457299	6
0	7835	12408.885519584175	7
0	7838	12412.60369109353	8
0	7840	12415.836169519382	9
0	7842	12425.023181183581	8
0	7845	12427.275835456509	7
0	7848	12430.84586844416	8
0	7850	12432.50055332615	7
0	7853	12436.67514711965	8
0	7855	12439.174566346609	7
0	7858	12441.806612026778	8
0	7860	12448.786656312268	7
0	7863	12455.017702728623	8
0	7865	12455.66539584073	7
0	7868	12461.182659510087	6
0	7870	12471.887366743695	7
0	7873	12475.866095807493	6
0	7875	12477.574620822294	7
0	7878	12483.962757739285	8
0	7880	12490.171052097039	9
0	7882	12494.716899606766	8
0	7885	12496.239166866075	7
0	7888	12499.110894711759	6
0	7890	12499.677482778822	7
0	7893	12501.262293093303	6
0	7895	12506.002030747057	5
0	7897	12506.133584060902	6
0	7900	12508.67389821477	7
0	7903	12508.70527666797	8
0	7905	12509.977015742213	9
0	7907	12515.583602299203	8
0	7910	12522.555873245523	9
0	7912	12525.979735964671	10
0	7914	12527.669572369013	11
0	7916	12527.691193673715	10
0	7919	12528.963870561473	9
0	7922	12530.939421953817	8
0	7925	12531.789198319896	7
0	7928	12534.319969684026	6
0	7930	12536.802494917974	7
[...]
1	7181	11375.845432498208	0
1	7183	11376.854406712542	0
1	7185	11380.018748962183	0
1	7187	11387.937187477358	0
1	7190	11390.48683097129	0
1	7193	11400.323965512682	0
1	7196	11404.454109778243	0
1	7199	11416.116845387582	0
1	7202	11423.575624340559	0
1	7205	11423.967267504494	0
1	7208	11426.013551305026	0
1	7210	11430.526321399278	0
1	7212	11441.957846272058	0
1	7214	11443.144365315358	0
1	7217	11451.400016272977	0
1	7219	11452.0197390197	0
1	7222	11454.125016474843	0
1	7225	11455.425694965721	0
1	7227	11457.077539198021	0
1	7229	11457.118237297078	0
1	7231	11459.06610085028	0
1	7233	11471.978998622085	0
1	7236	11473.550239099303	0
1	7239	11481.834413885554	0
1	7242	11491.444365639117	0
1	7244	11493.526557160138	0
1	7247	11494.781808922631	0
1	7250	11500.215885502347	0
1	7252	11502.905337385672	0
1	7255	11507.667766976527	0
1	7258	11511.734918112769	1
1	7260	11517.522379103476	0
1	7263	11518.00561403708	0
1	7265	11519.552820336427	0
1	7267	11532.018259680197	0
1	7270	11533.602475686259	0
1	7273	11540.872444994015	0
1	7275	11542.011032735857	0
1	7277	11546.403113348174	0
1	7279	11548.338667444327	0
1	7281	11553.413207088333	0
1	7284	11556.251071244553	0
1	7286	11571.319654127758	0
1	7288	11574.603996551289	0
1	7290	11596.764341303753	0
1	7293	11599.935400357537	0
1	7296	11601.335301731995	0
1	7298	11609.697922524783	0
1	7301	11618.256773533454	0
1	7304	11619.582188285623	0
1	7306	11626.287094229216	0
1	7309	11629.687819024177	0
1	7312	11632.886741564085	0
1	7315	11633.083204012308	0
1	7317	11638.331583184588	0
1	7319	11644.366035347468	0
1	7321	11644.446188800694	0
1	7324	11651.887720940625	0
1	7327	11657.220208480057	0
1	7329	11658.62316534828	0
1	7331	11658.642591456806	0
1	7334	11666.014458827797	0
1	7336	11667.673728701753	0
1	7339	11670.049275312919	0
1	7342	11677.031541688806	0
1	7345	11677.195481266185	0
1	7348	11678.356719473643	0
1	7350	11679.745878984235	0
1	7353	11688.901562951402	1
1	7355	11696.317020802864	0
1	7358	11700.059982529235	0
1	7360	11701.280615142252	0
1	7363	11701.957440467056	1
1	7365	11704.055533673189	0
1	7368	11704.163524471361	1
1	7370	11708.485728173382	0
1	7373	11711.431769769223	0
1	7375	11714.394452721133	0
1	7378	11721.625704581921	0
1	7380	11723.363585195912	0
1	7382	11725.477315351191	0
1	7385	11726.603392593923	0
1	7388	11727.199452265708	1
1	7390	11730.685443707288	2
1	7392	11732.070101725552	3
1	7394	11735.896431144447	2
1	7397	11738.261174099676	1
1	7400	11739.040393966085	0
1	7403	11740.966095689516	0
1	7405	11743.24149475142	0
1	7407	11743.301311087587	0
1	7410	11745.987120666835	0
1	7412	11749.700648946611	0
1	7415	11753.632243935551	0
1	7417	11756.325109563188	0
1	7419	11757.201215160336	0
1	7422	11765.036966771198	0
1	7425	11766.234184748504	0
1	7428	11767.444699573533	0
1	7430	11770.817704215709	0
1	7432	11775.992435052211	0
1	7434	11782.068897588415	0
1	7437	11784.355503319862	0
1	7440	11784.40519231945	0
1	7443	11802.190474299384	0
1	7445	11803.955426190711	0
1	7447	11804.273701622145	0
1	7450	11805.944103641643	0
1	7452	11806.082507504273	0
1	7455	11810.890393784795	0
1	7458	11812.714980590483	0
1	7460	11814.015482956841	0
1	7462	11814.501951995231	0
1	7464	11817.622754957931	0
1	7466	11819.241304610794	0
1	7468	11831.822669574156	0
1	7471	11837.559786056006	0
1	7474	11839.272824389447	0
1	7476	11847.859106080918	0
1	7479	11849.284533285108	0
1	7482	11855.383302793226	0
1	7485	11856.675764078263	0
1	7487	11859.382191344608	0
1	7489	11862.690337126123	0
1	7492	11867.058312702755	0
1	7495	11876.262084346913	0
1	7497	11878.537524286866	0
1	7499	11878.984969599044	0
1	7502	11881.606102616521	0
1	7505	11884.571424362268	0
1	7507	11900.067105360717	0
1	7509	11915.357636785837	0
1	7512	11916.342263213439	0
1	7515	11917.543171005838	0
1	7518	11920.650334381686	1
1	7520	11920.678496442049	0
1	7523	11927.25162294186	0
1	7525	11928.566806062505	0
1	7528	11929.961426582609	0
1	7530	11932.173916976201	0
1	7532	11933.045268301601	0
1	7535	11933.211189642486	0
1	7538	11936.644083011257	0
1	7540	11937.00395333445	0
1	7542	11940.994424374024	0
1	7544	11950.89418088783	0
1	7547	11956.064862436486	0
1	7550	11960.791725081012	0
1	7552	11965.544198427008	0
1	7555	11966.807189318842	0
1	7557	11967.311572554648	0
1	7560	11968.138330757785	0
1	7562	11972.817563183077	0
1	7564	11976.793657862556	0
1	7567	11978.717202092903	0
1	7570	11980.304892843156	0
1	7572	11993.789155320395	0
1	7574	11993.986152582961	0
1	7576	11999.485647393357	0
1	7579	11999.807198597695	0
1	7582	12002.386978298434	0
1	7584	12005.829943874019	0
1	7587	12012.354792581874	0
1	7589	12013.916726885295	0
1	7591	12014.070105203078	0
1	7594	12015.500981217313	0
1	7596	12020.521487700173	0
1	7599	12020.871267810729	0
1	7601	12023.379067635143	0
1	7603	12031.256484741263	0
1	7605	12036.493590869737	0
1	7607	12039.506911362897	0
1	7610	12050.467554852122	0
1	7613	12051.893726214592	0
1	7615	12051.95708676676	0
1	7618	12058.622643798054	0
1	7621	12066.652438505965	0
1	7624	12068.753431278989	0
1	7626	12072.520485496435	0
1	7629	12080.618800015419	0
1	7632	12084.192789777119	0
1	7634	12088.550058885919	0
1	7637	12090.586500797646	0
1	7639	12093.060907781551	0
1	7642	12093.075175893031	0
1	7644	12096.759670808765	0
1	7647	12101.854504376193	0
1	7649	12111.900998191536	0
1	7652	12115.709052719674	0
1	7654	12119.155505425072	0
1	7656	12120.484103274627	0
1	7658	12121.069453595263	0
1	7661	12126.686326241711	0
1	7663	12138.534112402769	0
1	7666	12143.087051028325	0
1	7669	12153.554371848759	0
1	7671	12153.842260865618	0
1	7673	12157.275116946795	0
1	7676	12162.547331564447	0
1	7679	12163.646076446811	0
1	7682	12164.208462641334	0
1	7685	12165.797147898624	0
1	7687	12166.065714582871	0
1	7689	12167.134158936995	0
1	7692	12173.962498791347	0
1	7694	12178.642238595673	0
1	7696	12179.222532835891	0
1	7698	12186.832428533756	0
1	7701	12186.885586379256	0
1	7704	12197.064637392644	0
1	7707	12199.60915607253	0
1	7710	12201.749987066793	0
1	7712	12203.179380092612	0
1	7714	12204.217611734142	0
1	7717	12206.139700163512	0
1	7720	12208.033099105611	0
1	7722	12209.765384489068	0
1	7725	12209.800529988687	0
1	7727	12209.811481704045	0
1	7730	12212.663904483402	0
1	7733	12214.752214692177	0
1	7735	12222.702129367119	0
1	7737	12226.395623421977	0
1	7739	12229.751083154814	0
1	7742	12231.461241949843	0
1	7744	12232.339023241126	0
1	7747	12233.895613084628	0
1	7749	12241.04764068974	0
1	7752	12242.656705557309	0
1	7754	12251.291896198831	0
1	7757	12260.935914493004	0
1	7760	12263.343877222568	0
1	7763	12268.487466935701	0
1	7765	12269.014462329025	0
1	7767	12286.689433673985	0
1	7770	12287.699224398814	0
1	7772	12301.960381892176	0
1	7775	12302.03584347873	0
1	7777	12302.745373983469	0
1	7779	12308.502059244402	0
1	7781	12309.223149783297	0
1	7783	12309.71315880478	0
1	7786	12311.296020854558	0
1	7789	12315.664506872259	0
1	7792	12315.981544547458	0
1	7794	12322.788080688959	0
1	7796	12332.719032441352	0
1	7799	12333.106594039781	0
1	7802	12334.863303821311	0
1	7804	12338.236613906517	0
1	7806	12344.816598963683	0
1	7808	12356.025167240747	0
1	7811	12356.289312087612	0
1	7814	12372.153752754111	0
1	7816	12373.463532299915	0
1	7819	12380.976853831743	0
1	7822	12381.620924596297	0
1	7824	12402.518974690239	0
1	7826	12404.718618764795	0
1	7829	12404.728725134207	0
1	7832	12407.407963457299	0
1	7835	12408.885519584175	0
1	7838	12412.60369109353	1
1	7840	12415.836169519382	2
1	7842	12425.023181183581	1
1	7845	12427.275835456509	0
1	7848	12430.84586844416	1
1	7850	12432.50055332615	0
1	7853	12436.67514711965	1
1	7855	12439.174566346609	0
1	7858	12441.806612026778	1
1	7860	12448.786656312268	0
1	7863	12455.017702728623	1
1	7865	12455.66539584073	0
1	7868	12461.182659510087	0
1	7870	12471.887366743695	0
1	7873	12475.866095807493	0
1	7875	12477.574620822294	0
1	7878	12483.962757739285	1
1	7880	12490.171052097039	2
1	7882	12494.716899606766	1
1	7885	12496.239166866075	0
1	7888	12499.110894711759	0
1	7890	12499.677482778822	0
1	7893	12501.262293093303	0
1	7895	12506.002030747057	0
1	7897	12506.133584060902	0
1	7900	12508.67389821477	0
1	7903	12508.70527666797	1
1	7905	12509.977015742213	2
1	7907	12515.583602299203	1
1	7910	12522.555873245523	2
1	7912	12525.979735964671	3
1	7914	12527.669572369013	4
1	7916	12527.691193673715	3
1	7919	12528.963870561473	2
1	7922	12530.939421953817	1
1	7925	12531.789198319896	0
1	7928	12534.319969684026	0
1	7930	12536.802494917974	0
1	7933	12540.498030312022	0
1	7935	12549.653038171371	0
1	7938	12562.404147607821	1
1	7940	12562.493121835424	2
1	7942	12564.40916897364	1
1	7945	12581.653708082782	0
1	7948	12582.371861705194	1
1	7950	12589.160493375826	0
1	7953	12589.897612496713	1
1	7955	12594.698707462322	2
1	7957	12600.842181462254	1
1	7960	12602.727498846288	2
1	7962	12607.642066791601	1
1	7965	12612.383145450252	0
1	7968	12616.709900532237	0
1	7970	12619.852480141129	0
1	7972	12624.064159023956	0
1	7975	12624.196320853502	0
1	7977	12631.275250589887	0
1	7979	12635.025456223002	0
1	7982	12635.548645444438	0
1	7985	12638.801986345926	0
1	7987	12650.328239148966	0
1	7990	12650.405623196893	0
1	7993	12655.334723490556	1
1	7995	12655.498077357275	2
1	7997	12657.531813434731	1
1	8000	12661.871543044878	2
1	8002	12661.989714108851	3
1	8004	12665.589454818427	4
1	8006	12668.549756072555	3
1	8009	12668.886381978696	4
1	8011	12678.77689866698	3
1	8014	12680.828461088491	2
1	8017	12683.070881905837	3
1	8019	12684.368909241101	4
1	8021	12694.418349839799	3
1	8024	12700.994366276824	2
1	8027	12706.236999588645	3
1	8029	12706.926704864838	4
1	8031	12707.278746616152	3
1	8034	12709.575503312092	2
1	8037	12710.206085135596	3
1	8039	12715.340730677038	2
1	8042	12715.441401859782	1
1	8045	12719.54910738981	2
1	8047	12721.080354894514	3
1	8049	12727.188999198733	2
1	8052	12733.295040667369	1
1	8055	12744.404536805694	0
1	8058	12745.515199303623	1
1	8060	12748.538123578869	0
1	8063	12750.996667406749	0
1	8065	12751.371633504364	0
1	8068	12752.607364546864	0
1	8070	12755.141126708933	0
1	8073	12756.300273345213	1
1	8075	12760.263955081094	0
1	8078	12760.720711160264	1
1	8080	12766.581633228546	0
1	8083	12773.829771632131	1
1	8085	12776.776315890306	0
1	8088	12779.062003317272	1
1	8090	12782.612709811028	2
1	8092	12786.61060010979	1
1	8095	12788.706015948252	0
1	8098	12794.411709345261	0
1	8100	12800.848731620682	0
1	8102	12806.172571309556	0
1	8105	12808.451709876424	0
1	8107	12808.805352407616	0
1	8110	12810.026723433845	0
1	8113	12811.158312592116	0
1	8115	12817.786631808037	0
1	8117	12822.383975532897	0
1	8120	12825.038200529418	0
1	8122	12831.798332174229	0
1	8125	12840.405784113457	0
1	8128	12841.985567969428	1
1	8130	12844.049769110706	0
1	8133	12847.447607764257	0
1	8135	12854.530180410156	0
1	8137	12858.204238477315	0
1	8139	12862.398786641372	0
1	8141	12873.46915674076	0
1	8144	12877.1016000299	0
1	8147	12878.51563039374	0
1	8150	12883.408699112825	0
1	8152	12894.753607900879	0
1	8154	12896.690971227238	0
1	8156	12897.838416092349	0
1	8159	12898.909421960184	0
1	8161	12901.446488959137	0
1	8164	12904.548180289995	0
1	8167	12906.16285445046	0
1	8169	12922.056785629825	0
1	8171	12922.183959369852	0
1	8174	12922.606994430184	0
1	8176	12928.191205678525	0
1	8178	12940.405512502903	0
1	8181	12947.975880242318	0
1	8183	12953.030686132992	0
1	8186	12953.099360655449	0
1	8188	12993.085992858615	0
1	8191	12993.55540171721	0
1	8194	12995.010890973523	0
1	8196	12999.387031359652	0
1	8198	13000.912320466315	0
1	8200	13006.555088206476	0
1	8203	13007.320864610803	0
1	8206	13010.094905644999	0
1	8209	13010.83241349311	0
1	8211	13019.570481454999	0
1	8213	13019.60141039585	0
1	8216	13028.56092891987	0
1	8219	13032.77660232288	0
1	8221	13035.013995248887	0
1	8223	13046.685188150641	0
1	8225	13054.507155434274	0
1	8228	13062.96811469172	0
1	8231	13065.749688683936	0
1	8233	13074.071217020434	0
1	8236	13074.996030146635	0
1	8239	13078.516320363902	0
1	8242	13086.995545289161	0
1	8244	13089.284343148007	0
1	8246	13097.685726942962	0
1	8249	13101.272930039702	0
1	8252	13110.262050878627	0
1	8254	13116.650904177966	0
1	8256	13116.716027975076	0
1	8258	13120.03818178831	0
1	8261	13120.737022144546	0
1	8263	13121.687692667593	0
1	8266	13128.359430916346	0
1	8269	13142.758885828394	0
1	8272	13143.415925843878	0
1	8274	13143.853880797866	0
1	8276	13145.171958544902	0
1	8279	13155.405683117045	0
1	8282	13160.394984881831	0
1	8285	13161.08200687308	0
1	8287	13166.60687562456	0
1	8289	13178.412972581136	0
1	8292	13179.99211030088	0
1	8294	13182.171136555827	0
1	8297	13182.834543116959	0
1	8299	13193.624586675875	0
1	8302	13196.033406304589	0
1	8304	13204.166311058716	0
1	8307	13207.471167130752	0
1	8309	13213.073277080873	0
1	8312	13213.960943423435	0
1	8314	13216.004935326636	0
1	8316	13235.835413320881	0
1	8319	13239.943672549355	0
1	8322	13244.316095681692	0
1	8324	13258.379805123548	0
1	8326	13265.358748858814	0
1	8328	13267.863222027009	0
1	8331	13274.891141722733	0
1	8333	13283.724494784656	0
1	8335	13286.708107204938	0
1	8338	13287.706343628438	0
1	8341	13288.401181327298	0
1	8344	13292.364997711507	0
1	8347	13295.303449915295	0
1	8350	13312.88331399326	0
1	8352	13324.336785531562	0
1	8355	13324.762881373472	0
1	8357	13325.802796142412	0
1	8360	13331.14033407969	0
1	8362	13336.85934636619	0
1	8365	13339.721912800723	0
1	8367	13345.31143890647	0
1	8370	13345.660951775557	0
1	8373	13347.920265594906	1
1	8375	13356.653424771848	2
1	8377	13356.846291982414	1
1	8380	13360.83055107493	0
1	8383	13364.730904195903	0
1	8385	13369.543623499321	0
1	8388	13376.402937033666	0
1	8390	13380.276031768074	0
1	8393	13387.159190622005	0
1	8395	13387.941193277222	0
1	8397	13391.920074330568	0
1	8400	13393.51302279614	0
1	8402	13399.027502021233	0
1	8404	13407.415887242265	0
1	8406	13409.018286052015	0
1	8408	13410.336507517	0
1	8410	13426.294721704704	0
1	8413	13427.526548157537	0
1	8416	13447.529738551235	0
1	8419	13452.628553297321	0
1	8422	13459.427489568733	0
1	8425	13459.566600501597	0
1	8427	13459.673005276678	0
1	8429	13468.7909716811	0
1	8431	13470.978956443133	0
1	8434	13471.048048143944	0
1	8437	13472.045428855915	0
1	8440	13472.80302106255	0
1	8442	13473.365469476864	0
1	8444	13477.45151299036	0
1	8446	13480.408840381902	0
1	8449	13482.276413909998	0
1	8452	13487.706740418775	0
1	8455	13500.978894432824	0
1	8457	13502.709109433518	0
1	8459	13504.990093501447	0
1	8461	13513.419382741515	0
1	8464	13513.45502827327	0
1	8467	13517.633840168099	0
1	8470	13527.498466784742	0
1	8473	13527.548569372389	0
1	8475	13532.183826350976	0
1	8478	13542.724857127373	0
1	8480	13544.422401686127	0
1	8483	13548.575287690357	1
1	8485	13550.586764391458	0
1	8488	13554.380648941547	1
1	8490	13555.308172115709	2
1	8492	13556.709149002692	3
1	8494	13557.008348695899	4
1	8496	13559.309498288941	3
1	8499	13562.138992242955	2
1	8502	13562.453234340989	1
1	8505	13563.611034446974	0
1	8508	13568.858282653883	1
1	8510	13570.441158206652	2
1	8512	13571.217837292624	1
1	8515	13574.538226157434	0
1	8518	13575.770130897477	1
1	8520	13576.409428239784	0
1	8523	13578.349590656332	0
1	8525	13583.761618808396	0
1	8527	13585.256850838891	0
1	8529	13587.270569369447	0
1	8531	13597.307992829556	0
1	8534	13597.977708907554	0
1	8537	13601.970306659959	0
1	8540	13607.223183680185	0
1	8543	13613.725652955742	0
1	8545	13616.624339951033	0
1	8548	13620.738455386391	0
1	8550	13623.328459646398	0
1	8553	13626.162717371717	0
1	8555	13626.531181668525	0
1	8557	13630.210010142039	0
1	8559	13632.782802649634	0
1	8561	13635.111557389426	0
1	8564	13638.155527275866	0
1	8567	13647.492343362506	0
1	8570	13653.322850484858	0
1	8572	13658.865850210848	0
1	8574	13660.326765286996	0
1	8576	13660.781008422557	0
1	8579	13663.34926377262	0
1	8581	13690.564549350812	0
1	8584	13699.477853179323	0
1	8587	13702.595285181883	0
1	8589	13712.81197586881	0
1	8592	13739.005773289141	0
1	8595	13740.857635533193	0
1	8597	13741.119065764601	0
1	8600	13755.739948006525	0
1	8602	13757.252789142102	0
1	8605	13757.920762965543	0
1	8607	13762.90186876855	0
1	8610	13762.92747370627	0
1	8613	13765.197919233598	0
1	8615	13766.428654260547	0
1	8617	13770.477703599123	0
1	8619	13770.984983199722	0
1	8622	13775.07429886258	0
1	8624	13778.763651117061	0
1	8627	13786.750309195805	0
1	8630	13787.337702962905	0
1	8633	13788.708763936919	0
1	8635	13789.275781095937	0
1	8637	13789.705472364263	0
1	8640	13793.351926519705	0
1	8642	13795.696724197166	0
1	8644	13812.982929833216	0
1	8647	13814.244808557573	0
1	8649	13817.463943605797	0
1	8652	13823.759217628321	0
1	8654	13827.237153774508	0
1	8656	13832.327289172923	0
1	8658	13833.833768585223	0
1	8661	13836.608305340088	0
1	8664	13839.446928290641	0
1	8667	13842.462607038887	0
1	8670	13842.760712054136	0
1	8672	13846.891378188915	0
1	8674	13847.285931529559	0
1	8677	13848.70867692777	0
1	8680	13852.513149758051	0
1	8683	13853.695956077468	1
1	8685	13856.736012774475	0
1	8688	13859.039605479819	1
1	8690	13861.763396716763	2
1	8692	13861.822135461219	1
1	8695	13871.12630142991	0
1	8698	13872.282755600666	0
1	8700	13872.649020046552	0
1	8703	13872.728317225682	0
1	8705	13878.357014323257	0
1	8707	13882.022418253938	0
1	8709	13883.149015351846	0
1	8712	13889.324772766294	0
1	8714	13895.347999098581	0
1	8716	13897.966202667313	0
1	8719	13901.274746296609	0
1	8721	13906.106464281966	0
1	8724	13908.528336323011	0
1	8726	13911.509882455402	0
1	8728	13914.733764704517	0
1	8731	13920.783000575688	0
1	8734	13922.939499330494	0
1	8736	13927.30764687969	0
1	8739	13929.678821942826	0
1	8741	13931.348584332221	0
1	8743	13931.776340928665	0
1	8746	13939.471936534646	0
1	8749	13951.145372400241	0
1	8751	13965.237806689404	0
1	8753	13965.673280679313	0
1	8756	13972.074024765924	0
1	8758	13979.254516240945	0
1	8761	13982.777523344374	0
1	8764	13985.211542596024	0
1	8767	13986.99973932076	0
1	8769	13989.00906112699	0
1	8771	13990.327576698072	0
1	8774	13993.338350909292	0
1	8776	13997.135480797793	0
1	8779	13999.351327921623	0
1	8781	13999.949785503483	0
1	8784	14002.586628464962	0
1	8786	14007.467687604324	0
1	8789	14013.456039988012	0
1	8792	14014.005583379556	0
1	8794	14016.782882299001	0
1	8797	14019.981930361082	0
1	8799	14022.193558100702	0
1	8801	14026.447856776312	0
1	8804	14028.684047155012	0
1	8807	14044.600893407664	0
1	8810	14060.396775518677	0
1	8812	14060.910085984945	0
1	8815	14061.686601886464	0
1	8817	14073.606049929452	0
1	8819	14080.218963308092	0
1	8822	14092.485701107159	0
1	8824	14095.929928466174	0
1	8826	14100.450505056659	0
1	8829	14101.837757831937	0
1	8831	14108.297300548956	0
1	8833	14109.249768099863	0
1	8836	14122.559964302331	0
1	8838	14128.32995717738	0
1	8840	14134.397486755997	0
1	8843	14142.102474103916	0
1	8846	14150.045417852656	0
1	8849	14159.517224893861	0
1	8852	14166.31205938788	0
1	8854	14174.229239891065	0
1	8856	14177.552056349688	0
1	8859	14178.857144515299	0
1	8862	14185.299448790205	0
1	8865	14188.700031982654	0
1	8868	14189.05336337484	1
1	8870	14194.857136268251	0
1	8873	14198.848963610233	0
1	8875	14200.463975386313	0
1	8877	14200.96781119067	0
1	8879	14210.039428502965	0
1	8881	14211.581980961805	0
1	8884	14217.237857840481	0
1	8887	14218.241930264959	0
1	8890	14222.789155660402	0
1	8892	14222.87289857882	0
1	8894	14225.881633117642	0
1	8896	14232.94659645415	0
1	8899	14242.769809248172	0
1	8902	14260.922537983167	0
1	8905	14263.715265219393	0
1	8907	14267.438504642995	0
1	8909	14272.560093122745	0
1	8912	14275.768150908611	0
1	8914	14276.075845999238	0
1	8916	14282.393695118832	0
1	8919	14283.719554408339	0
1	8922	14289.443289610985	0
1	8924	14293.790498231713	0
1	8926	14297.428783478215	0
1	8928	14303.945370213163	0
1	8931	14312.223742015941	0
1	8934	14323.81445310301	0
1	8937	14325.052093310295	0
1	8940	14326.76698684468	0
1	8943	14331.946544051253	1
1	8945	14333.243182050822	0
1	8948	14341.054100522105	0
1	8950	14344.485127914979	0
1	8952	14360.111076154663	0
1	8954	14372.398196405915	0
1	8956	14373.539445082338	0
1	8959	14374.699617459461	0
1	8961	14376.146593259072	0
1	8964	14378.145334330901	0
1	8966	14388.914603166192	0
1	8968	14397.836445917193	0

