version 2
run POLICY_1-20-20191213-12:40:09-1218
attr configname POLICY_1
attr datetime 20191213-12:40:09
attr experiment POLICY_1
attr inifile omnetpp.ini
attr iterationvars ""
attr iterationvarsf ""
attr measurement ""
attr network Carrefour
attr processid 1218
attr repetition 20
attr replication #20
attr resultdir results
attr runnumber 20
attr seedset 20
param **.policy 1
param **.delta 0s
param **.tillsNumber 7
param **.capacity 0.3
param **.meanInterArrivalTime 8s
param **.meanItemsInACart 12
param **.interArrivalDistribution 0
param **.itemsInCartDistribution 0

vector 0 Carrefour.decider stats_numCustomers:vector ETV
attr "" ""
attr source numCustomers
vector 1 Carrefour.decider stats_numCustomersQueue:vector ETV
attr "" ""
attr source numCustomersQueue
0	783	1202.890796581683	8
0	785	1203.442582408274	9
0	787	1204.590979185865	10
0	789	1218.936126862242	9
0	792	1222.195613512764	8
0	795	1226.419323322477	7
0	798	1228.842311138253	6
0	800	1237.837523283654	5
0	802	1242.758658672064	4
0	804	1243.642731022605	3
0	806	1248.081576920237	2
0	808	1248.890649012257	1
0	810	1257.423849378144	2
0	813	1258.70288005235	3
0	816	1259.89389979483	4
0	819	1264.760081233086	5
0	822	1265.776029927816	4
0	824	1271.529609836107	5
0	827	1276.218650791951	4
0	829	1285.419913233265	5
0	832	1288.838216698694	4
0	834	1301.528842569489	5
0	837	1302.855002320831	4
0	839	1305.638098411617	5
0	842	1307.042163945614	6
0	845	1314.917867892823	5
0	847	1315.572767152036	4
0	849	1315.638035692235	5
0	852	1316.159857012662	6
0	855	1320.030292158145	7
0	858	1320.226403407118	8
0	860	1326.485348484613	7
0	863	1341.7630549371	8
0	865	1342.803384593996	7
0	868	1346.415213140082	6
0	870	1348.879863271987	5
0	872	1355.382602757135	6
0	875	1356.602280096299	7
0	878	1357.542854392366	8
0	880	1358.725221865427	7
0	883	1373.65383825222	8
0	885	1374.393507367673	7
0	888	1380.590418345623	8
0	890	1384.709369848246	7
0	893	1385.294152835778	6
0	895	1386.027041937037	7
0	898	1386.937048752095	6
0	900	1388.575237940014	7
0	903	1389.717666853479	8
0	905	1391.96705614402	7
0	908	1397.071018319305	6
0	910	1407.541123957372	5
0	912	1415.146201464268	6
0	915	1415.699874121726	5
0	917	1420.485525420829	4
0	919	1424.939679878195	3
0	921	1431.866030908231	4
0	924	1435.419074330324	3
0	926	1440.161540036663	4
0	929	1441.11825913549	5
0	932	1441.462883368822	4
0	934	1441.587495229719	3
0	936	1446.575853802319	2
0	938	1450.733814319154	3
0	941	1452.028431695633	2
0	943	1454.77297880001	1
0	945	1456.676761640078	2
0	948	1456.887200033652	3
0	951	1459.558591038018	4
0	954	1476.166191863654	3
0	956	1481.410700789525	4
0	959	1483.010480841005	5
0	962	1483.823313829903	4
0	964	1484.663342790924	3
0	966	1487.190513208539	2
0	968	1489.292587491707	3
0	971	1494.591218015757	2
0	973	1498.082256958409	3
0	976	1503.4848588695	4
0	979	1505.911837595739	3
0	981	1506.204236416973	2
0	983	1508.677996459375	1
0	985	1509.350689346652	2
0	988	1521.953615241692	3
0	991	1524.689051589374	4
0	994	1527.821926396665	5
0	997	1529.78683339647	4
0	999	1537.74615634907	5
0	1002	1538.272019301095	4
0	1004	1544.126891109002	5
0	1007	1553.930334652371	4
0	1009	1561.535368051376	3
0	1011	1567.9650158714	2
0	1013	1569.255360322517	1
0	1015	1571.129713058442	2
0	1018	1572.992255369311	1
0	1020	1573.358365214107	0
0	1022	1578.655181280517	1
0	1025	1578.689047814045	2
0	1028	1580.093265696779	3
0	1031	1582.058373658602	4
0	1034	1583.26130815303	5
0	1037	1587.187129350946	4
0	1039	1588.2095546327	5
0	1042	1590.719753786558	4
0	1044	1591.442763888185	5
0	1047	1595.034447940985	4
0	1049	1595.664598852337	3
0	1051	1596.609324061169	2
0	1053	1608.037995336603	1
0	1055	1612.283745546829	2
0	1058	1616.438751377183	3
0	1061	1620.580651789703	4
0	1064	1625.615267590865	5
0	1067	1631.307882600578	4
0	1069	1632.634005440396	3
0	1071	1633.85863086692	2
0	1073	1644.40209621328	3
0	1076	1648.460402866943	4
0	1079	1649.552928319103	3
0	1081	1652.009898063582	2
0	1083	1667.767765102507	3
0	1086	1673.92384428821	2
0	1088	1674.351875639062	3
0	1091	1678.146423528053	2
0	1093	1679.229671531948	3
0	1096	1682.072910088809	4
0	1099	1691.159366475891	3
0	1101	1693.095024211531	4
0	1104	1693.186080839009	5
0	1107	1695.459250913363	6
0	1110	1696.891115531356	5
0	1112	1698.939419716198	6
0	1115	1709.267490937874	5
0	1117	1710.417379162797	4
0	1119	1710.432546356299	5
0	1122	1714.652265116723	4
0	1124	1720.708510382431	5
0	1127	1733.893691737756	6
0	1130	1739.191685682894	5
0	1132	1740.32811570043	4
0	1134	1748.827915198294	5
0	1137	1750.485849210334	4
0	1139	1758.936609134287	3
0	1141	1761.943638590986	2
0	1143	1762.586065746526	1
0	1145	1769.958115916386	0
0	1147	1776.981663944249	1
0	1150	1791.111415682114	2
0	1153	1794.665824887263	1
0	1155	1795.895039222419	0
0	1157	1803.586454478262	1
0	1160	1816.860327933392	2
0	1163	1824.617460882685	3
0	1166	1827.072517177704	2
0	1168	1827.091267756786	3
0	1171	1827.495799873024	4
0	1174	1830.753996685498	5
0	1177	1838.064196819742	6
0	1180	1840.366916153905	5
0	1182	1840.844499799393	4
0	1184	1842.807206890588	3
0	1186	1847.825447889924	4
0	1189	1850.21825020389	5
0	1192	1850.817058582597	6
0	1195	1852.171982022465	5
0	1197	1852.321080809916	4
0	1199	1854.66605396295	5
0	1202	1855.094841961733	6
0	1205	1855.508818954676	5
0	1207	1856.112136062137	4
0	1209	1859.068199671259	3
0	1211	1862.325385146396	4
0	1214	1869.492720346981	5
0	1217	1871.843059599378	6
0	1220	1880.572130605498	5
0	1222	1890.522773520315	4
0	1224	1892.816554725461	3
0	1226	1896.918213456	4
0	1229	1896.921627503967	5
0	1232	1902.623325757897	4
0	1234	1904.709763025358	5
0	1237	1906.527949142046	4
0	1239	1906.55118740784	5
0	1242	1909.118139007729	6
0	1245	1912.894905768346	7
0	1248	1915.964793827286	6
0	1250	1920.4730447187	7
0	1253	1926.012742681535	8
0	1255	1934.504006972793	9
0	1257	1939.103061711555	10
0	1259	1944.02685549867	11
0	1261	1948.43604619106	12
0	1263	1958.506298619465	11
0	1266	1966.153166535669	12
0	1268	1968.911163192108	13
0	1270	1969.834923664707	14
0	1272	1971.453186961528	13
0	1275	1978.846022237948	14
0	1277	1979.530655163328	15
0	1279	1981.075132860672	14
0	1282	1985.983654572711	13
0	1285	1986.651506620293	14
0	1287	1990.318590777034	15
0	1289	1990.508123592207	14
0	1292	1998.237633628156	13
0	1295	2005.634167069517	14
0	1297	2006.238018131392	13
0	1300	2007.143410428437	12
0	1303	2011.004362241419	11
0	1306	2014.081100357304	10
0	1309	2019.500258130948	11
0	1311	2019.547225419353	12
0	1313	2023.620252602699	13
0	1315	2024.311791629742	14
0	1317	2028.571252215669	13
0	1320	2030.878966800685	12
0	1323	2034.876256263743	13
0	1325	2040.69586292084	14
0	1327	2040.841522205072	13
0	1330	2042.689085049292	12
0	1333	2043.271857481839	11
0	1336	2044.123825622157	12
0	1338	2046.670168864191	13
0	1340	2047.383903938439	12
0	1343	2053.808191902427	11
0	1346	2053.874284283392	10
0	1349	2066.428732410935	11
0	1351	2072.556266524447	12
0	1353	2075.199971234718	11
0	1356	2079.389645532263	10
0	1359	2079.977889703041	9
0	1362	2087.974065255835	10
0	1364	2088.966589485561	11
0	1366	2090.588855019402	10
0	1369	2103.927813565597	9
0	1372	2104.287592979768	8
0	1375	2105.595217827089	7
0	1378	2114.609166457642	6
0	1380	2123.443226392203	5
0	1382	2123.895054201342	4
0	1384	2126.792168806683	5
0	1387	2129.706059241225	4
0	1389	2134.202910956182	3
0	1391	2138.336422087328	2
0	1393	2140.215571259076	3
0	1396	2143.808205332275	4
0	1399	2146.300407532963	3
0	1401	2153.34448737908	2
0	1403	2157.506945537838	1
0	1405	2163.952147850229	2
0	1408	2166.641010293464	3
0	1411	2169.053521479569	2
0	1413	2171.349744425303	1
0	1415	2205.547273638994	2
0	1418	2212.742446952766	3
0	1421	2214.956486186623	4
0	1424	2230.85360317335	3
0	1426	2235.609290804088	2
0	1428	2238.961712471773	1
0	1430	2247.343179909851	2
0	1433	2257.931112023808	3
0	1436	2266.30798734943	2
0	1438	2269.679064043017	1
0	1440	2270.668151666561	2
0	1443	2271.084447049629	3
0	1446	2275.435951680431	4
0	1449	2278.143716976167	5
0	1452	2281.204450353764	4
0	1454	2292.31418501542	3
0	1456	2293.393263004991	4
0	1459	2307.01957042316	5
0	1462	2311.841651668457	6
0	1465	2316.744078181982	7
0	1468	2320.129621651442	8
0	1470	2324.404603152862	9
0	1472	2324.820210549422	8
0	1475	2331.584193540175	7
0	1478	2335.304240794137	6
0	1480	2337.025316426951	7
0	1483	2339.507719114297	8
0	1485	2340.166767583796	9
0	1487	2341.391194091413	10
0	1489	2343.250724306016	11
0	1491	2346.753534675499	10
0	1494	2347.32177826269	9
0	1497	2347.612226493058	8
0	1500	2351.853001782867	7
0	1503	2352.37400124949	6
0	1505	2353.081352947213	7
0	1508	2359.596095408593	8
0	1510	2363.877680704911	9
0	1512	2379.428372194647	10
0	1514	2384.470640807586	11
0	1516	2385.424217977709	12
0	1518	2389.401248278771	13
0	1520	2394.540696730727	12
0	1523	2395.812036302155	11
0	1526	2398.52625162832	10
0	1529	2400.854746521175	9
0	1532	2402.592381700792	10
0	1534	2405.615701379611	11
0	1536	2411.57455182519	10
0	1539	2412.806013565929	9
0	1542	2415.786305132345	10
0	1544	2419.058896017779	11
0	1546	2422.833564969782	10
0	1549	2425.457421463174	9
0	1552	2426.578748975587	8
0	1555	2429.572698430601	9
0	1557	2429.587851888545	8
0	1560	2430.174776904871	9
0	1562	2430.977787452999	8
0	1565	2431.202396570348	7
0	1568	2432.432321697082	6
0	1570	2437.811099113724	5
0	1572	2448.813859831396	4
0	1574	2452.589163374992	5
0	1577	2456.430185006246	4
0	1579	2461.971541081164	5
0	1582	2462.381330278113	6
0	1585	2463.432177549308	7
0	1588	2464.051734862375	8
0	1590	2471.501897947053	9
0	1592	2472.106597383503	10
0	1594	2479.944101756101	9
0	1597	2482.646796245399	8
0	1600	2487.794934481853	9
0	1602	2492.132507232059	8
0	1605	2499.996451810513	7
0	1608	2500.263735725133	6
0	1610	2502.730644972858	5
0	1612	2503.921831047433	4
0	1614	2511.642401980837	3
0	1616	2512.236229809558	4
0	1619	2512.340685113279	5
0	1622	2513.290984828883	6
0	1625	2518.424327516698	5
0	1627	2519.445786600848	4
0	1629	2521.955435747322	5
0	1632	2526.869075568673	4
0	1634	2529.511816464464	5
0	1637	2531.422577504145	6
0	1640	2534.194599028874	7
0	1643	2534.861496613271	6
0	1645	2539.430831097026	5
0	1647	2542.262447995198	6
0	1650	2543.173656369194	5
0	1652	2544.088887306993	4
0	1654	2550.851218098227	5
0	1657	2550.984188058576	4
0	1659	2551.519111975135	3
0	1661	2553.251162602888	4
0	1664	2561.3532842942	3
0	1666	2574.537177471976	2
0	1668	2583.071977575401	1
0	1670	2589.452831021025	0
0	1672	2594.864773460679	1
0	1675	2595.345984705513	2
0	1678	2618.927187057781	3
0	1681	2621.683260999906	4
0	1684	2627.143833896438	5
0	1687	2652.554029287262	4
0	1689	2656.479274096719	3
0	1691	2657.701209264171	4
0	1694	2662.501211024578	5
0	1697	2665.66223125757	6
0	1700	2666.181552449244	5
0	1702	2667.353775090472	6
0	1705	2668.377233210413	7
0	1708	2674.566258476502	6
0	1710	2675.556634014883	7
0	1713	2676.354300944724	6
0	1715	2681.143726278833	7
0	1718	2687.769228487561	6
0	1720	2693.383014910462	7
0	1723	2694.4994554	6
0	1725	2697.174207518582	5
0	1727	2699.340372765387	6
0	1730	2703.478328426166	7
0	1733	2708.821738952612	6
0	1735	2708.861450844283	5
0	1737	2721.35477108824	6
0	1740	2722.885033230308	5
0	1742	2727.088873925941	4
0	1744	2731.116340175635	5
0	1747	2731.373166196021	4
0	1749	2735.312263460984	3
0	1751	2743.163479102361	4
0	1754	2744.178960466862	5
0	1757	2744.438109186517	4
0	1759	2745.026432398691	5
0	1762	2746.805042344319	6
0	1765	2748.033433433962	5
0	1767	2748.891781649708	6
0	1770	2749.197825761666	7
0	1773	2755.187645890096	8
0	1775	2761.864479157036	9
0	1777	2764.984586595842	8
0	1780	2768.718593296718	7
0	1783	2773.084819946033	8
0	1785	2773.768824747257	9
0	1787	2779.801802088595	8
0	1790	2786.775677772197	9
0	1792	2793.423436707851	10
0	1794	2794.526062347432	9
0	1797	2801.397295097766	8
0	1800	2811.397608650595	9
0	1802	2814.386140454513	8
0	1805	2817.636958957347	9
0	1807	2818.770761119035	10
0	1809	2818.957810264496	11
0	1811	2823.042033285606	10
0	1814	2831.621434807734	11
0	1816	2836.996435967069	10
0	1819	2840.127705605946	11
0	1821	2843.286173489969	10
0	1824	2844.84102590186	9
0	1827	2848.535142157317	8
0	1830	2850.836902611706	9
0	1832	2851.60141371644	8
0	1835	2852.306906951333	9
0	1837	2854.734179163618	10
0	1839	2856.754570942579	11
0	1841	2859.734995477856	10
0	1844	2861.893521020443	9
0	1847	2862.764838912455	8
0	1850	2863.050999714542	7
0	1853	2866.421310132787	6
0	1855	2867.514254415828	7
0	1858	2868.363608652462	6
0	1860	2871.96838334185	5
0	1862	2872.08419896782	4
0	1864	2877.830409287682	3
0	1866	2883.978133922935	2
0	1868	2891.767785305996	3
0	1871	2895.508373528803	2
0	1873	2903.432782686932	3
0	1876	2905.29408688708	4
0	1879	2914.330428728369	5
0	1882	2914.760693691018	4
0	1884	2916.807150276311	3
0	1886	2924.879078329557	4
0	1889	2944.377943327854	5
0	1892	2945.589082184566	4
0	1894	2951.457694763741	3
0	1896	2972.34879339843	2
0	1898	2977.935149862092	3
0	1901	2981.363863718061	2
0	1903	2982.654348920915	3
0	1906	2993.973672304207	4
0	1909	2997.228479864774	5
0	1912	2997.668894092276	4
0	1914	2997.772460085114	5
0	1917	3000.986749599219	4
0	1919	3001.65698746543	3
0	1921	3008.27846736819	4
0	1924	3026.347602206626	5
0	1927	3027.081000807815	6
0	1930	3027.426353985441	5
0	1932	3040.961466319189	4
0	1934	3041.927933400799	5
0	1937	3047.786354253666	4
0	1939	3051.757471982418	5
0	1942	3056.958159721629	6
0	1945	3061.131344736413	7
0	1948	3081.802426708678	8
0	1950	3087.215456160185	7
0	1953	3088.682895002443	8
0	1955	3090.461784384092	7
0	1958	3091.201435598814	8
0	1960	3093.442255558493	9
0	1962	3097.38188348235	8
0	1965	3100.781734232876	7
0	1968	3105.721802548707	6
0	1970	3106.716901550633	5
0	1972	3106.816688631773	6
0	1975	3107.62742730507	5
0	1977	3109.185876153778	6
0	1980	3115.166973767366	7
0	1983	3117.451355877588	6
0	1985	3118.043995277153	7
0	1988	3118.704438267736	8
0	1990	3118.781941100951	9
0	1992	3122.061086840169	10
0	1994	3124.088431071018	11
0	1996	3126.359292556108	12
0	1998	3130.377255724479	13
0	2000	3132.843452183502	14
0	2002	3133.520281842224	15
0	2004	3146.798947062789	16
0	2006	3146.952644002931	15
0	2009	3147.04774656294	16
0	2011	3148.05996427762	15
0	2014	3150.162714475549	14
0	2017	3151.287069579428	13
0	2020	3159.827384576476	12
0	2023	3161.107255029331	11
0	2026	3162.189555403389	12
0	2028	3169.804575451382	11
0	2031	3175.336735515057	12
0	2033	3178.483509024854	11
0	2036	3191.013928232643	12
0	2038	3194.437809449026	13
0	2040	3196.036301113947	14
0	2042	3196.059334344607	15
0	2044	3197.145604787026	16
0	2046	3201.65350834279	15
0	2049	3202.275296858111	14
0	2052	3204.672710381844	13
0	2055	3211.762920039305	12
0	2058	3214.357371093628	13
0	2060	3214.888575195977	14
0	2062	3218.263115326588	15
0	2064	3219.033179762546	14
0	2067	3219.809916786881	13
0	2070	3219.973200460304	12
0	2073	3226.365538779483	13
0	2075	3230.597727259731	14
0	2077	3231.919393182291	13
0	2080	3232.488059431252	14
0	2082	3236.8396587494	13
0	2085	3248.853758240435	12
0	2088	3261.012154199764	11
0	2091	3263.695774406012	10
0	2094	3265.29813896882	9
0	2097	3266.830572185411	10
0	2099	3267.249116994005	9
0	2102	3268.827108560863	10
0	2104	3271.782005784166	11
0	2106	3273.393734966196	10
0	2109	3276.327843406294	11
0	2111	3290.202635838494	12
0	2113	3292.094318348044	13
0	2115	3297.88425798898	12
0	2118	3298.766178167217	13
0	2120	3301.033431860516	14
0	2122	3307.7732116785	15
0	2124	3314.56761654556	16
0	2126	3314.997311906492	15
0	2129	3316.47696235791	16
0	2131	3316.992663176749	17
0	2133	3319.847713819971	16
0	2136	3319.976040602265	15
0	2139	3321.124549148606	16
0	2141	3322.795389643641	17
0	2143	3332.146028419538	18
0	2145	3335.702707505462	17
0	2148	3336.254499602174	16
0	2151	3336.851828416635	17
0	2153	3343.638841314858	16
0	2156	3344.539909191327	17
0	2158	3345.780436758528	16
0	2161	3349.113660478627	17
0	2163	3350.620454560162	16
0	2166	3352.066129788908	15
0	2169	3357.741917904612	14
0	2172	3360.333177534228	13
0	2175	3368.255328766723	14
0	2177	3370.293675226987	13
0	2180	3372.010088268677	14
0	2182	3372.272718625391	15
0	2184	3372.489726896839	16
0	2186	3374.301166005263	17
0	2188	3376.320509655144	18
0	2190	3380.244949401607	17
0	2193	3381.034037100928	18
0	2195	3381.802608269364	17
0	2198	3384.750884720508	18
0	2200	3389.354354355204	17
0	2203	3403.771447947543	16
0	2206	3415.006884792903	15
0	2209	3416.528777224356	14
0	2212	3422.103885313146	13
0	2215	3423.835682828085	12
0	2218	3426.922534233844	13
0	2220	3433.875033298273	14
0	2222	3433.950740641505	15
0	2224	3436.478557779294	14
0	2227	3437.314919336891	13
0	2230	3437.390526404586	12
0	2233	3437.541513732188	13
0	2235	3437.804185641772	14
0	2237	3439.015759202013	15
0	2239	3440.720782022822	14
0	2242	3447.384625736242	15
0	2244	3453.814624562188	16
0	2246	3457.267235950002	15
0	2249	3463.866151218916	14
0	2252	3468.959806483457	15
0	2254	3469.810669043388	14
0	2257	3471.168954068498	13
0	2260	3471.698248008932	14
0	2262	3475.966252290397	13
0	2265	3476.996404762352	12
0	2268	3477.049897029651	11
0	2271	3479.385080764925	10
0	2274	3480.693570290906	11
0	2276	3485.61979111396	12
0	2278	3490.530490327614	13
0	2280	3493.783362163965	12
0	2283	3502.893711887174	13
0	2285	3503.925628140046	12
0	2288	3504.459444727463	13
0	2290	3512.808326952842	12
0	2293	3531.485714288639	13
0	2295	3531.599486745025	12
0	2298	3536.55604169404	13
0	2300	3537.874936112676	12
0	2303	3539.24590246633	11
0	2306	3543.793272793544	10
0	2309	3548.89806351611	9
0	2312	3562.192153882824	8
0	2315	3565.401945588822	9
0	2317	3567.846692247798	10
0	2319	3573.516496850103	9
0	2322	3581.47054732003	10
0	2324	3586.290036127594	9
0	2327	3593.611895491913	8
0	2330	3595.480621137522	9
0	2332	3595.570302963994	10
0	2334	3597.086741315187	9
0	2337	3598.356036370738	8
0	2340	3602.338033349108	7
0	2343	3605.682126528779	8
0	2345	3606.047613305501	9
0	2347	3610.681244951221	8
0	2350	3613.174952498726	7
0	2353	3615.587678776373	6
0	2355	3616.389045327829	7
0	2358	3619.804703708231	6
0	2360	3635.262365271663	7
0	2363	3640.202169999184	8
0	2365	3640.298387139026	7
0	2368	3641.872476447066	6
0	2370	3646.854091651017	7
0	2373	3647.06030134655	6
0	2375	3649.677766492924	5
0	2377	3657.533556485684	6
0	2380	3658.539992602212	5
0	2382	3662.792165283417	4
0	2384	3669.621896755098	5
0	2387	3675.159890329105	4
0	2389	3681.069746303545	5
0	2392	3685.431530367118	4
0	2394	3689.021797378767	5
0	2397	3690.502659254873	6
0	2400	3690.989906783094	7
0	2403	3694.87776926599	8
0	2405	3699.984189272967	9
0	2407	3703.759889527452	8
0	2410	3704.968245594466	7
0	2413	3707.089162155471	8
0	2415	3708.133731887228	7
0	2418	3709.567408356581	8
0	2420	3716.812155768631	7
0	2423	3718.101762479742	8
0	2425	3725.239250956719	9
0	2427	3730.167449180959	8
0	2430	3731.517229050264	9
0	2432	3733.778007012305	8
0	2435	3740.127732872621	9
0	2437	3740.702643673477	8
0	2440	3744.930490607324	9
0	2442	3746.635538982597	8
0	2445	3747.639980019385	7
0	2448	3748.121225732936	6
0	2450	3751.000622388779	7
0	2453	3754.417049438187	6
0	2455	3757.026409197112	7
0	2458	3758.784656376747	6
0	2460	3759.998045621979	5
0	2462	3765.009729936644	6
0	2465	3766.056944725376	7
0	2468	3768.803200524945	8
0	2470	3771.857033290278	9
0	2472	3778.256906421651	10
0	2474	3780.104563855032	9
0	2477	3790.819516169043	8
0	2480	3792.162643722379	9
0	2482	3796.581045968986	8
0	2485	3806.582272557091	7
0	2488	3808.51497346618	6
0	2490	3813.317016193873	7
0	2493	3815.121624491492	8
0	2495	3815.186596707447	7
0	2498	3817.657745234187	6
0	2500	3830.977670713018	7
0	2503	3831.690634668718	6
0	2505	3833.250022235071	5
0	2507	3833.954757651865	4
0	2509	3836.568054160912	5
0	2512	3842.195284468817	4
0	2514	3842.749574615953	3
0	2516	3846.975503650981	2
0	2518	3847.118885651727	3
0	2521	3850.800170080759	4
0	2524	3853.777586515675	5
0	2527	3855.105382903878	4
0	2529	3859.460365670511	3
0	2531	3867.350285876675	2
0	2533	3868.913230464828	3
0	2536	3871.439408337178	4
0	2539	3872.107666397107	5
0	2542	3873.449253740686	4
0	2544	3880.34400057471	5
0	2547	3880.502868474845	6
0	2550	3882.556763628621	5
0	2552	3896.07453019845	6
0	2555	3900.237203535986	5
0	2557	3901.80870311276	4
0	2559	3910.347487120012	5
0	2562	3916.34655023004	4
0	2564	3923.441283438164	5
0	2567	3930.48260733139	6
0	2570	3933.062667295446	7
0	2573	3938.956501794937	6
0	2575	3942.275025082708	5
0	2577	3942.514291710417	4
0	2579	3944.279547805245	3
0	2581	3947.893116019539	4
0	2584	3955.894489917362	5
0	2587	3965.471466391044	6
0	2590	3971.060605422669	7
0	2593	3974.045981574821	6
0	2595	3976.427822652212	5
0	2597	3979.08632365876	6
0	2600	3986.403713595901	5
0	2602	3987.181058099076	6
0	2605	3989.761853050123	5
0	2607	3993.762921509778	4
0	2609	3994.410621756626	5
0	2612	3995.964056945658	4
0	2614	4002.423445458875	5
0	2617	4003.850706603261	6
0	2620	4004.268480346418	7
0	2623	4008.928309138819	8
0	2625	4010.712062306648	7
0	2628	4011.288723279075	6
0	2630	4013.170369562244	7
0	2633	4014.749680297782	6
0	2635	4015.238585725554	7
0	2638	4018.987238371884	6
0	2640	4019.283289902465	5
0	2642	4019.620955874117	4
0	2644	4020.989273999662	3
0	2646	4023.695234144834	4
0	2649	4031.859089491953	5
0	2652	4044.852227119894	6
0	2655	4046.653244139503	5
0	2657	4050.875666289755	4
0	2659	4071.012231791682	5
0	2662	4074.671277945777	4
0	2664	4075.581937663669	5
0	2667	4081.555717214541	6
0	2670	4082.854739671168	5
0	2672	4083.223163718425	4
0	2674	4083.356062490821	3
0	2676	4083.8359402489	4
0	2679	4086.564321833587	5
0	2682	4094.966390618567	4
0	2684	4095.055685463068	5
0	2687	4096.88915349851	4
0	2689	4103.332717111205	3
0	2691	4108.959825239405	2
0	2693	4121.112660266761	3
0	2696	4123.734869525937	4
0	2699	4127.263628041765	3
0	2701	4131.371080761655	4
0	2704	4132.085824006006	5
0	2707	4140.245402855783	6
0	2710	4149.851198616674	5
0	2712	4153.098890099352	6
0	2715	4160.458536026575	7
0	2718	4163.819643470462	8
0	2720	4164.613168615546	7
0	2723	4169.024454387844	8
0	2725	4170.052081663949	7
0	2728	4171.369505460514	6
0	2730	4174.520322823374	7
0	2733	4177.462775342336	6
0	2735	4181.061693465005	7
0	2738	4186.371973172321	8
0	2740	4188.090104878384	7
0	2743	4188.97836474093	8
0	2745	4198.244114989209	9
0	2747	4198.28821217611	10
0	2749	4214.333504403363	11
0	2751	4218.443182308376	12
0	2753	4218.485071547688	11
0	2756	4222.991028664471	12
0	2758	4226.070237182256	13
0	2760	4227.699847321467	14
0	2762	4231.429320428633	15
0	2764	4240.620056151779	14
0	2767	4247.476915811179	15
0	2769	4247.795280985648	14
0	2772	4250.262556175602	13
0	2775	4252.77307048513	14
0	2777	4255.377027621874	13
0	2780	4257.448026359437	14
0	2782	4257.715063336568	15
0	2784	4258.846079468518	16
0	2786	4263.611774323127	15
0	2789	4264.964950287366	16
0	2791	4267.349288377796	15
0	2794	4273.997197269215	14
0	2797	4278.033852568099	13
0	2800	4281.592982296173	12
0	2803	4284.467504106175	11
0	2806	4288.699749940601	12
0	2808	4297.425284122726	11
0	2811	4297.900470485911	12
0	2813	4307.947047207369	11
0	2816	4308.885028998034	10
0	2819	4312.983719156342	11
0	2821	4316.450142278291	10
0	2824	4316.760911939616	9
0	2827	4318.77045757002	8
0	2830	4319.600111586282	7
0	2833	4320.943188662961	8
0	2835	4321.431645689407	7
0	2838	4323.711574272838	8
0	2840	4324.928300913089	9
0	2842	4325.785080891238	10
0	2844	4327.167862020739	9
0	2847	4327.65902916543	8
0	2850	4329.107100823341	9
0	2852	4335.161885475075	8
0	2855	4336.051984261103	9
0	2857	4336.76423232645	10
0	2859	4337.374791803489	11
0	2861	4339.705386452826	12
0	2863	4340.773421424784	11
0	2866	4342.152638925484	10
0	2869	4344.247130848692	11
0	2871	4345.243649292877	12
0	2873	4345.307077494587	11
0	2876	4351.948010793295	10
0	2879	4351.959289419622	11
0	2881	4356.977963066462	10
0	2884	4357.364339410408	9
0	2887	4357.426662696273	10
0	2889	4360.305024072337	9
0	2892	4363.784828902156	8
0	2895	4365.259059333742	7
0	2898	4369.001765404001	6
0	2900	4369.277115290688	5
0	2902	4375.374864028926	6
0	2905	4377.205421165499	7
0	2908	4377.610258794146	8
0	2910	4383.032246994392	9
0	2912	4385.063374265747	8
0	2915	4388.268467023998	9
0	2917	4392.947438068605	10
0	2919	4400.324172888333	11
0	2921	4403.309762579081	12
0	2923	4406.621007625442	13
0	2925	4413.216775657003	14
0	2927	4418.852088658583	13
0	2930	4429.68692014152	12
0	2933	4431.302316832407	13
0	2935	4431.585781670951	12
0	2938	4432.172573231578	11
0	2941	4433.038673884602	10
0	2944	4434.980096437334	9
0	2947	4437.065003182674	10
0	2949	4437.950817134885	11
0	2951	4438.672447920203	10
0	2954	4442.65439552728	11
0	2956	4443.848567033051	10
0	2959	4447.954467842003	11
0	2961	4448.419797766793	12
0	2963	4453.413903683148	11
0	2966	4460.398563164289	12
0	2968	4462.146064028353	13
0	2970	4462.51196647791	12
0	2973	4464.065725175413	13
0	2975	4472.457536556306	14
0	2977	4476.587910572141	15
0	2979	4483.284930587165	14
0	2982	4488.417807500963	15
0	2984	4489.387446478151	14
0	2987	4490.433709054682	13
0	2990	4490.871382732999	14
0	2992	4491.644120239366	13
0	2995	4495.118258669477	14
0	2997	4496.832098924074	13
0	3000	4502.93942694555	14
0	3002	4503.395827442423	15
0	3004	4506.101003488814	14
0	3007	4507.572269288764	15
0	3009	4509.026952690516	16
0	3011	4510.727954689594	15
0	3014	4512.930029169629	14
0	3017	4513.497112953714	15
0	3019	4519.241691571051	14
0	3022	4523.319727012997	13
0	3025	4526.860068045834	12
0	3028	4530.210340179474	11
0	3031	4530.86889896252	10
0	3034	4530.980407766245	9
0	3037	4531.355970561362	8
0	3040	4532.014197014047	7
0	3043	4540.167794796964	6
0	3045	4543.711958616348	5
0	3047	4544.460449574521	6
0	3050	4545.417203330196	7
0	3053	4545.879292849296	6
0	3055	4546.960434921791	7
0	3058	4548.646314727182	6
0	3060	4550.257566658816	5
0	3062	4550.975530664161	4
0	3064	4551.144887917794	5
0	3067	4553.609051987101	4
0	3069	4558.774010579367	3
0	3071	4558.829100541941	4
0	3074	4559.109065294833	5
0	3077	4570.628875496115	4
0	3079	4572.122457649216	3
0	3081	4575.502483144982	2
0	3083	4590.877512610975	3
0	3086	4592.858789573911	4
0	3089	4597.536724849949	5
0	3092	4598.516263001279	4
0	3094	4604.022351369248	5
0	3097	4604.074666617	6
0	3100	4607.077514251762	7
0	3103	4607.342723847686	6
0	3105	4608.662134076166	5
0	3107	4612.429506885998	4
0	3109	4613.122848550035	3
0	3111	4614.699686313472	4
0	3114	4617.262706948819	5
0	3117	4622.729729375798	6
0	3120	4624.065992124098	7
0	3123	4628.112518030398	8
0	3125	4631.408906277028	7
0	3128	4635.00824699556	8
0	3130	4636.589071392384	9
0	3132	4637.946400068194	8
0	3135	4638.079182778101	7
0	3138	4639.973204235601	6
0	3140	4640.065786751615	7
0	3143	4653.327077511192	6
0	3145	4653.942741764505	7
0	3148	4655.485868468403	6
0	3150	4662.367469088661	5
0	3152	4663.922782310755	4
0	3154	4664.945603457583	5
0	3157	4665.803586034027	6
0	3160	4666.227004156414	7
0	3163	4669.990064839739	8
0	3165	4673.100630772955	7
0	3168	4673.616517753437	6
0	3170	4682.004536911236	7
0	3173	4683.757837722414	6
0	3175	4690.393873711578	7
0	3178	4692.588595011787	6
0	3180	4698.19131551542	5
0	3182	4701.627573564299	6
0	3185	4705.711131510768	5
0	3187	4708.106441155328	4
0	3189	4728.898097351303	3
0	3191	4739.957706984895	2
0	3193	4742.230440510242	3
0	3196	4746.585520965177	2
0	3198	4751.935366309236	3
0	3201	4756.0184011992	4
0	3204	4756.691046619459	5
0	3207	4758.587426272569	4
0	3209	4759.695512238182	5
0	3212	4762.994439965483	4
0	3214	4765.554529875861	5
0	3217	4770.990640836872	4
0	3219	4779.429450646753	3
0	3221	4780.468947380242	4
0	3224	4781.050016182728	3
0	3226	4783.58923175596	4
0	3229	4786.807437985331	3
0	3231	4786.933877458178	2
0	3233	4791.181076235204	3
0	3236	4792.02905411709	4
0	3239	4797.520953124375	3
0	3241	4807.216829356751	4
0	3244	4808.255534583536	5
0	3247	4816.391090414725	4
0	3249	4817.74497182835	5
0	3252	4818.699699614513	6
0	3255	4820.168771789814	7
0	3258	4822.064409194064	8
0	3260	4825.332064383322	9
0	3262	4827.126014699512	10
0	3264	4828.911075909007	9
0	3267	4829.558442500928	8
0	3270	4831.10601835726	7
0	3273	4835.107166099862	6
0	3275	4840.673782580763	5
0	3277	4841.917032426168	6
0	3280	4842.876251805726	5
0	3282	4853.011787601167	6
0	3285	4853.86164473378	7
0	3288	4859.856346422658	6
0	3290	4860.091282594114	7
0	3293	4865.854713549426	6
0	3295	4867.079428948992	5
0	3297	4869.475223389839	6
0	3300	4874.17521348271	5
0	3302	4874.503786429632	6
0	3305	4879.818015407824	7
0	3308	4880.804093905149	6
0	3310	4880.939763068178	5
0	3312	4881.962575920619	6
0	3315	4890.713472900707	5
0	3317	4893.541985920708	6
0	3320	4898.494898068755	5
0	3322	4898.789572522187	6
0	3325	4900.104468921696	7
0	3328	4903.167081326691	6
0	3330	4905.592083443902	7
0	3333	4906.826547205256	6
0	3335	4906.8527935225	5
0	3337	4909.610955862232	6
0	3340	4910.8061790328	5
0	3342	4916.213726630081	4
0	3344	4917.326618258621	5
0	3347	4919.725654538332	4
0	3349	4921.488411886322	5
0	3352	4926.225711738843	4
0	3354	4932.979885479692	3
0	3356	4941.793126121387	2
0	3358	4946.622434459058	1
0	3360	4951.008310824911	2
0	3363	4951.062573580786	3
0	3366	4954.590827850743	2
0	3368	4954.790721232283	1
0	3370	4955.540875824473	2
0	3373	4963.105084633459	1
0	3375	4963.347002043703	0
0	3377	4964.95780480951	1
0	3380	4973.667549583061	2
0	3383	4976.765924631419	3
0	3386	4980.39845933638	4
0	3389	4990.040347018611	3
0	3391	4995.243314419498	4
0	3394	5001.179008252138	3
0	3396	5003.207151763368	2
0	3398	5006.180486897333	3
0	3401	5008.542275761237	4
0	3404	5011.287483214095	5
0	3407	5021.796307318656	4
0	3409	5022.997135342277	5
0	3412	5025.466283445892	4
0	3414	5025.808625407084	5
0	3417	5026.502161598435	4
0	3419	5026.951294791808	5
0	3422	5028.699844121381	6
0	3425	5034.72924057573	5
0	3427	5040.748071356574	6
0	3430	5045.72694159879	5
0	3432	5059.161599642736	4
0	3434	5062.108595530232	5
0	3437	5065.101005614503	6
0	3440	5067.516462595352	5
0	3442	5070.677224880621	6
0	3445	5075.737133567533	5
0	3447	5078.637343584885	6
0	3450	5080.231976091533	5
0	3452	5088.595382188206	4
0	3454	5093.704205199021	3
0	3456	5094.291686383379	2
0	3458	5096.982367846276	3
0	3461	5101.908685987859	4
0	3464	5113.952491205517	3
0	3466	5114.809500474617	4
0	3469	5117.089739183445	3
0	3471	5117.342433594644	4
0	3474	5119.535386434295	3
0	3476	5120.457489736079	2
0	3478	5124.130321462059	3
0	3481	5130.942671563453	2
0	3483	5131.756413527798	3
0	3486	5135.751323097512	4
0	3489	5138.628969347457	5
0	3492	5147.673119582579	4
0	3494	5157.466883049667	3
0	3496	5160.40776867474	2
0	3498	5187.560159672148	1
0	3500	5187.742620900122	2
0	3503	5187.767742757183	3
0	3506	5190.222172573904	4
0	3509	5192.175397308953	5
0	3512	5195.240877475474	4
0	3514	5195.606814798091	5
0	3517	5195.756936802367	6
0	3520	5197.925982682224	5
0	3522	5201.447482909377	6
0	3525	5210.650447316073	5
0	3527	5222.041552130282	4
0	3529	5231.988351050417	3
0	3531	5239.099692065088	4
0	3534	5240.38510666273	3
0	3536	5240.464623575876	2
0	3538	5243.367867952217	3
0	3541	5244.338836248379	4
0	3544	5244.718606170323	5
0	3547	5250.254195135164	6
0	3550	5251.84420889631	7
0	3553	5254.891313910601	8
0	3555	5257.697429940656	9
0	3557	5263.52157989173	8
0	3560	5264.77025612052	7
0	3563	5268.603564379262	6
0	3565	5269.274123683688	5
0	3567	5276.214072252231	6
0	3570	5276.866969045757	5
0	3572	5284.450820921726	4
0	3574	5287.038515959308	3
0	3576	5288.883521766128	4
0	3579	5294.94125217119	5
0	3582	5303.35290563685	6
0	3585	5305.500761737097	5
0	3587	5315.938412992039	6
0	3590	5318.892513684092	5
0	3592	5320.134369201629	4
0	3594	5324.552381145116	5
0	3597	5325.398931331071	6
0	3600	5325.433111356639	5
0	3602	5330.230491549924	4
0	3604	5333.32075483606	3
0	3606	5337.11092641123	4
0	3609	5338.770237488223	5
0	3612	5341.906565630091	6
0	3615	5354.270388069185	7
0	3618	5357.691574393281	6
0	3620	5367.104850839127	5
0	3622	5370.14017929488	4
0	3624	5391.168875454358	3
0	3626	5393.438639753691	2
0	3628	5403.465187604547	3
0	3631	5408.96484658832	4
0	3634	5409.918858924399	3
0	3636	5413.396044311073	4
0	3639	5414.584128279533	5
0	3642	5415.667741857147	6
0	3645	5416.889854576245	5
0	3647	5424.813696708846	6
0	3650	5435.802139603597	7
0	3653	5436.213864411841	6
0	3655	5438.118956294335	7
0	3658	5441.489622424214	8
0	3660	5447.33613949154	9
0	3662	5448.892064669902	8
0	3665	5454.335423502877	7
0	3668	5455.722926581544	8
0	3670	5459.326799334201	7
0	3673	5460.293379317578	6
0	3675	5462.288853716136	7
0	3678	5462.805447845617	8
0	3680	5464.670274724261	7
0	3683	5468.221065611556	6
0	3685	5469.05253864846	7
0	3688	5470.194268674277	8
0	3690	5472.663200139988	9
0	3692	5479.079677242103	10
0	3694	5479.645786504738	11
0	3696	5493.565343661581	10
0	3699	5493.632307937245	9
0	3702	5500.939434748498	10
0	3704	5503.928062804024	9
0	3707	5504.134918390453	8
0	3710	5507.299080502809	9
0	3712	5510.984806088901	10
0	3714	5513.428478414337	9
0	3717	5516.405075292457	8
0	3720	5530.160321469728	9
0	3722	5532.839550247959	10
0	3724	5533.61359143307	9
0	3727	5539.785884744547	10
0	3729	5540.608179527583	9
0	3732	5543.472926201825	8
0	3735	5545.686465491062	9
0	3737	5550.024849773652	8
0	3740	5558.388107857796	7
0	3743	5560.172642475972	6
0	3745	5563.220668577706	7
0	3748	5573.582900107304	8
0	3750	5574.528179481864	9
0	3752	5575.322569784708	8
0	3755	5576.416799494851	7
0	3758	5577.024474797667	6
0	3760	5578.276582096512	5
0	3762	5582.764839968765	6
0	3765	5587.864799285045	5
0	3767	5588.359935029651	6
0	3770	5590.588245176065	5
0	3772	5590.85556426585	6
0	3775	5599.930706235226	5
0	3777	5603.415370320439	6
0	3780	5605.013374853573	7
0	3783	5608.14953781215	6
0	3785	5608.544578747475	5
0	3787	5609.790962284619	4
0	3789	5610.833765126406	3
0	3791	5611.171929487669	4
0	3794	5615.506993884579	3
0	3796	5621.090235435382	2
0	3798	5629.531051442555	3
0	3801	5641.513240185683	2
0	3803	5647.367861870103	3
0	3806	5652.559105908024	2
0	3808	5662.080025035509	3
0	3811	5671.821455395541	2
0	3813	5674.278778592009	3
0	3816	5681.345361540912	4
0	3819	5686.265095520861	5
0	3822	5690.826762165722	6
0	3825	5700.227088616735	7
0	3828	5701.621669905798	6
0	3830	5710.621894875661	7
0	3833	5710.699970755398	8
0	3835	5711.153053880581	9
0	3837	5712.78074020162	8
0	3840	5713.649713700767	7
0	3843	5714.597949882147	8
0	3845	5716.079559852422	7
0	3848	5717.758684215025	6
0	3850	5721.217057646564	7
0	3853	5722.041844936357	8
0	3855	5722.248204799163	7
0	3858	5723.532325379682	6
0	3860	5724.399816007314	7
0	3863	5732.2080864244	8
0	3865	5732.736624345185	9
0	3867	5735.96488171665	10
0	3869	5741.322259661853	9
0	3872	5743.37027484574	10
0	3874	5743.970757454631	11
0	3876	5746.838151948788	10
0	3879	5750.996283356499	9
0	3882	5760.381460048433	10
0	3884	5761.388980217095	11
0	3886	5761.81570099396	12
0	3888	5761.892592525837	11
0	3891	5766.995031606765	10
0	3894	5768.087619137476	9
0	3897	5768.898951106782	8
0	3900	5769.189445859214	7
0	3903	5775.570311394555	8
0	3905	5782.830523528831	9
0	3907	5789.928066447475	8
0	3910	5790.786341341532	9
0	3912	5791.254304692796	8
0	3915	5792.761819206089	7
0	3918	5794.41037845106	8
0	3920	5800.451393171862	7
0	3923	5802.790779995257	6
0	3925	5808.202383876916	5
0	3927	5808.409079661969	4
0	3929	5813.175524218327	5
0	3932	5815.602502506618	4
0	3934	5827.615013337912	5
0	3937	5831.679479996503	4
0	3939	5835.412167982781	5
0	3942	5838.574951938491	4
0	3944	5850.534868351412	5
0	3947	5851.136001027926	4
0	3949	5852.017187570671	5
0	3952	5852.390657960758	4
0	3954	5852.914897048639	3
0	3956	5854.466081159631	2
0	3958	5858.433483695983	3
0	3961	5864.006274451099	2
0	3963	5873.805697478419	1
0	3965	5875.969211145269	0
0	3967	5882.728105319949	1
0	3970	5885.690148108991	2
0	3973	5886.082860545051	3
0	3976	5889.624195302011	2
0	3978	5890.361671278185	3
0	3981	5891.326127300776	4
0	3984	5897.792653940184	5
0	3987	5906.830750069673	6
0	3990	5917.305305091971	5
0	3992	5927.006694384608	4
0	3994	5927.300896324165	3
0	3996	5930.292473896044	2
0	3998	5931.971450011184	3
0	4001	5932.807041322933	2
0	4003	5933.973781171877	3
0	4006	5934.330812185389	2
0	4008	5934.339771308828	3
0	4011	5937.47426041701	4
0	4014	5938.486261948199	5
0	4017	5939.51989884871	6
0	4020	5940.314106837108	7
0	4023	5943.105982693007	6
0	4025	5943.706170974143	5
0	4027	5945.165038071068	4
0	4029	5947.336943836616	5
0	4032	5970.587321130349	4
0	4034	5974.128217628156	3
0	4036	5983.978381824479	2
0	4038	5985.513938959512	3
0	4041	5993.64405343331	2
0	4043	5993.664462475446	1
0	4045	5994.702576117715	2
0	4048	6006.682308250282	3
0	4051	6008.038918097979	4
0	4054	6009.218152849837	3
0	4056	6010.695008911395	4
0	4059	6014.833977209288	3
0	4061	6021.480909673856	4
0	4064	6024.572461680411	5
0	4067	6027.911139347491	4
0	4069	6030.072725101283	5
0	4072	6034.068134748923	4
0	4074	6040.345744048557	3
0	4076	6040.542035341505	4
0	4079	6045.371685044427	3
0	4081	6047.588706718937	4
0	4084	6066.179979915799	5
0	4087	6066.683779475087	6
0	4090	6066.984228401769	5
0	4092	6072.420289672546	6
0	4095	6072.629080639424	5
0	4097	6080.101784461323	6
0	4100	6081.806894260745	7
0	4103	6087.841163892182	6
0	4105	6090.359403705471	7
0	4108	6091.61209955151	6
0	4110	6094.383417094863	5
0	4112	6094.404542064678	6
0	4115	6097.400432861789	5
0	4117	6110.069983194664	6
0	4120	6114.656437001004	5
0	4122	6118.164295755943	6
0	4125	6124.903325333839	7
0	4128	6126.202026525056	6
0	4130	6126.8587760575	5
0	4132	6134.552445924506	4
0	4134	6137.08343190391	3
0	4136	6140.31930010351	4
0	4139	6152.583416172657	3
0	4141	6154.431320676457	2
0	4143	6159.109800757188	3
0	4146	6161.611951228983	4
0	4149	6169.046989181848	3
0	4151	6175.954150842096	4
0	4154	6189.915571736995	3
0	4156	6195.235478866931	2
0	4158	6199.872651201958	3
0	4161	6206.57886734373	4
0	4164	6209.63080847418	5
0	4167	6212.571734438267	4
0	4169	6218.414065756166	3
0	4171	6224.645253074815	4
0	4174	6228.384801009739	5
0	4177	6228.596059935208	6
0	4180	6241.231679714002	7
0	4183	6248.893325738556	6
0	4185	6254.843492317295	7
0	4188	6256.496521366609	6
0	4190	6264.404135120101	7
0	4193	6274.272796950605	6
0	4195	6275.860125580465	5
0	4197	6286.571877896	4
0	4199	6290.420908027934	5
0	4202	6290.632262457882	6
0	4205	6292.483177256193	7
0	4208	6294.525440937157	6
0	4210	6304.901287978315	5
0	4212	6307.072480257277	4
0	4214	6307.250632569331	5
0	4217	6309.502590486824	4
0	4219	6314.003060108955	5
0	4222	6326.650336720122	4
0	4224	6328.636512887026	5
0	4227	6329.66642862233	4
0	4229	6332.087814461258	3
0	4231	6346.131243775308	2
0	4233	6349.864507057576	1
0	4235	6351.580971648108	0
0	4237	6353.352775287948	1
0	4240	6353.436695651696	2
0	4243	6355.605392210873	3
0	4246	6357.170411086391	2
0	4248	6368.743005105942	3
0	4251	6373.876808419106	4
0	4254	6374.761720607947	5
0	4257	6375.396772806177	6
0	4260	6384.084591909095	7
0	4263	6385.564791220075	6
0	4265	6386.537232288501	7
0	4268	6392.340276741282	8
0	4270	6394.415063400711	7
0	4273	6396.351091186581	6
0	4275	6400.299935330465	5
0	4277	6401.350983849757	6
0	4280	6402.052821775395	7
0	4283	6402.623725160259	8
0	4285	6412.388097323827	9
0	4287	6425.526549366971	10
0	4289	6428.274524052835	9
0	4292	6428.302447830602	8
0	4295	6429.104801480864	7
0	4298	6432.114001804067	6
0	4300	6436.20754187123	7
0	4303	6441.259763433046	6
0	4305	6445.986507264262	7
0	4308	6446.64338880837	8
0	4310	6452.573058479125	7
0	4313	6455.195583305147	6
0	4315	6455.916412362464	5
0	4317	6457.948444330404	6
0	4320	6467.15874844339	5
0	4322	6470.823364562705	4
0	4324	6473.713446134104	5
0	4327	6473.859219559509	6
0	4330	6473.938329643126	7
0	4333	6474.684265891526	8
0	4335	6476.728522120058	7
0	4338	6479.845884283465	6
0	4340	6480.280920645189	7
0	4343	6482.683726030538	6
0	4345	6486.796566794281	5
0	4347	6487.211608373705	6
0	4350	6498.811895521221	7
0	4353	6504.806120543619	8
0	4355	6505.125527485895	7
0	4358	6509.930524890123	6
0	4360	6511.912782418211	5
0	4362	6514.530279368785	6
0	4365	6522.550301314268	5
0	4367	6529.706824979391	4
0	4369	6542.633160273635	5
0	4372	6544.69069003045	4
0	4374	6545.711956639815	3
0	4376	6546.463019207817	2
0	4378	6553.393424592952	1
0	4380	6556.041614239281	0
0	4382	6593.169440304286	1
0	4385	6598.492599451847	2
0	4388	6607.898768339085	3
0	4391	6632.846420909482	2
0	4393	6633.090928920133	3
0	4396	6638.483056402311	4
0	4399	6639.579375261517	5
0	4402	6641.999696434485	4
0	4404	6646.119262623844	5
0	4407	6649.852927737872	6
0	4410	6650.538869854703	5
0	4412	6652.660023196546	6
0	4415	6663.524788757441	5
0	4417	6669.705096594713	6
0	4420	6670.250948306286	7
0	4423	6684.90795516412	6
0	4425	6686.43851063656	7
0	4428	6687.697184473458	6
0	4430	6687.960707808699	5
0	4432	6694.902013805027	4
0	4434	6695.97407253264	3
0	4436	6706.036732596117	4
0	4439	6723.36816709381	3
0	4441	6734.412490857864	4
0	4444	6736.117092756261	3
0	4446	6739.308639773037	4
0	4449	6741.202823207956	3
0	4451	6747.992977442033	2
0	4453	6748.138719708458	1
0	4455	6755.91540191141	2
0	4458	6757.370421309158	3
0	4461	6758.237025871368	4
0	4464	6775.244116288861	5
0	4467	6785.336688073409	6
0	4470	6787.103389022152	5
0	4472	6787.185607488591	4
0	4474	6788.144727677466	3
0	4476	6792.383458543922	4
0	4479	6794.871535570937	5
0	4482	6795.978374829807	6
0	4485	6798.187351532655	7
0	4488	6801.767004462599	8
0	4490	6806.306545701942	9
0	4492	6813.651846940381	8
0	4495	6815.074083437448	7
0	4498	6815.72286022038	6
0	4500	6817.866408103832	5
0	4502	6820.782615291866	4
0	4504	6835.552368423473	5
0	4507	6841.11995713162	4
0	4509	6846.23336296048	3
0	4511	6848.609035402559	2
0	4513	6848.656498801947	3
0	4516	6850.474007344571	4
0	4519	6850.745126385019	5
0	4522	6858.276802377921	4
0	4524	6860.187656824185	5
0	4527	6862.337206266974	4
0	4529	6862.603924078866	5
0	4532	6862.979430833462	6
0	4535	6863.318796303563	5
0	4537	6863.981888443309	4
0	4539	6865.542252760021	5
0	4542	6868.705820009928	6
0	4545	6871.017295480318	5
0	4547	6871.904832451605	4
0	4549	6872.36286880528	5
0	4552	6872.445215396669	6
0	4555	6876.294666883816	5
0	4557	6881.582308649047	6
0	4560	6887.034336106675	5
0	4562	6887.766405887991	6
0	4565	6889.677307033511	5
0	4567	6891.07464846849	4
0	4569	6897.183557620237	5
0	4572	6901.596818725423	4
0	4574	6907.885363949077	3
0	4576	6908.45468878571	2
0	4578	6920.135540600418	1
0	4580	6936.940881726874	2
0	4583	6937.147457124336	3
0	4586	6938.62162510162	4
0	4589	6945.751559119349	5
0	4592	6957.581384378544	6
0	4595	6957.922372219197	7
0	4598	6961.42348684813	6
0	4600	6962.79552192048	5
0	4602	6971.048098795811	4
0	4604	6971.968068286297	3
0	4606	6976.715461302495	4
0	4609	6977.780760340588	3
0	4611	6978.046806089259	2
0	4613	6978.794348429806	3
0	4616	6981.954707606958	2
0	4618	6984.25516954116	3
0	4621	6986.914252102574	2
0	4623	6992.407963800953	1
0	4625	7005.008177910192	2
0	4628	7008.511659575877	1
0	4630	7013.607987249128	2
0	4633	7023.194720401266	3
0	4636	7028.540723163919	4
0	4639	7033.54532314069	5
0	4642	7035.130495087377	6
0	4645	7037.576446509004	5
0	4647	7040.493003452468	6
0	4650	7041.542560446947	5
0	4652	7047.980015253475	6
0	4655	7054.097759534117	5
0	4657	7055.948755721016	6
0	4660	7057.689490949671	7
0	4663	7071.24436321886	8
0	4665	7084.194109345052	7
0	4668	7087.67730637589	6
0	4670	7087.777479563313	5
0	4672	7090.067088178873	4
0	4674	7091.840053436077	3
0	4676	7093.026944908637	2
0	4678	7097.668599340808	1
0	4680	7103.402662735936	2
0	4683	7105.538980720057	3
0	4686	7107.959954071378	4
0	4689	7119.799649974138	5
0	4692	7120.311902772142	4
0	4694	7122.924564727556	3
0	4696	7128.655289030378	4
0	4699	7135.144209736011	5
0	4702	7137.85750098133	6
0	4705	7142.921688637153	7
0	4708	7148.639471865954	6
0	4710	7149.757960101585	7
0	4713	7151.968621200488	8
0	4715	7153.079869821771	9
0	4717	7153.29841917492	10
0	4719	7156.27427013319	11
0	4721	7157.930985693918	12
0	4723	7158.225477238399	13
0	4725	7158.258205563305	14
0	4727	7159.12768491823	15
0	4729	7160.259961266193	14
0	4732	7161.424369287326	15
0	4734	7162.273238964102	14
0	4737	7162.841495187608	13
0	4740	7166.16994854652	12
0	4743	7166.502880956132	11
0	4746	7167.003520761893	10
0	4749	7167.218852752961	11
0	4751	7172.739033372362	10
0	4754	7175.918540260754	11
0	4756	7182.921057970176	12
0	4758	7187.72777290017	11
0	4761	7195.13804586672	10
0	4764	7196.019007890745	11
0	4766	7196.044074442163	12
0	4768	7217.6748546304	11
0	4771	7226.162361400495	12
0	4773	7227.609331794485	13
0	4775	7231.0952907281	12
0	4778	7233.051920240334	11
0	4781	7243.731168460801	10
0	4784	7245.632321712246	9
0	4787	7251.129417800311	10
0	4789	7260.360797272643	9
0	4792	7263.404058611264	8
0	4795	7263.651820212935	7
0	4798	7266.252151135736	6
0	4800	7271.362283801172	7
0	4803	7274.707422439762	6
0	4805	7286.414027580539	5
0	4807	7287.213866283371	4
0	4809	7290.751607179056	5
0	4812	7291.514910609819	6
0	4815	7293.719550721604	5
0	4817	7295.537577921474	6
0	4820	7306.850398975361	5
0	4822	7309.502265785948	4
0	4824	7320.584802596363	5
0	4827	7322.247568833048	4
0	4829	7323.969426593122	5
0	4832	7332.483385900099	4
0	4834	7340.558902173263	3
0	4836	7360.440321035018	4
0	4839	7368.811316853496	5
0	4842	7369.747375568301	6
0	4845	7376.637342740222	5
0	4847	7377.865009437281	4
0	4849	7384.710563412194	5
0	4852	7386.417759682717	4
0	4854	7395.093270194926	3
0	4856	7395.734978407011	2
0	4858	7402.723066042439	3
0	4861	7404.81066729749	2
0	4863	7406.303312378732	3
0	4866	7409.789696319323	4
0	4869	7423.759240713413	3
0	4871	7436.218279744581	4
0	4874	7442.844900391125	3
0	4876	7446.368872260317	4
0	4879	7451.343820622464	5
0	4882	7455.616990266871	4
0	4884	7459.309347500146	5
0	4887	7463.593004181522	4
0	4889	7466.839755075099	3
0	4891	7467.309842775984	2
0	4893	7469.272325421834	3
0	4896	7473.28084637194	4
0	4899	7474.267265310639	3
0	4901	7481.510986478092	4
0	4904	7507.140059337614	5
0	4907	7507.726439704254	6
0	4910	7510.05532645033	5
0	4912	7510.135225832128	4
0	4914	7511.411396499559	5
0	4917	7511.550399505299	6
0	4920	7516.853792434294	5
0	4922	7521.068931081405	6
0	4925	7523.033562002325	7
0	4928	7523.733018976835	6
0	4930	7524.860125342079	5
0	4932	7530.878606327315	4
0	4934	7532.232631178504	5
0	4937	7536.636374553311	6
0	4940	7538.304246251434	5
0	4942	7551.415435379743	4
0	4944	7552.692515148707	3
0	4946	7562.804784811744	4
0	4949	7565.003236195313	5
0	4952	7576.429689130194	6
0	4955	7577.088794764395	5
0	4957	7577.298331585692	4
0	4959	7580.987064756187	3
0	4961	7586.992778957208	2
0	4963	7590.248212646492	3
0	4966	7599.156643144173	4
0	4969	7605.292581833886	5
0	4972	7605.562516093543	4
0	4974	7618.131959675945	3
0	4976	7619.540599752284	2
0	4978	7625.946041666154	3
0	4981	7636.046312512442	2
0	4983	7637.99745081639	3
0	4986	7648.692000453522	4
0	4989	7652.227386340825	5
0	4992	7653.814596068912	4
0	4994	7672.371872095942	3
0	4996	7674.918946650521	4
0	4999	7680.756191501083	3
0	5001	7684.0526117026	2
0	5003	7706.735167783945	3
0	5006	7707.503222600668	2
0	5008	7708.668803721161	1
0	5010	7712.026868472494	2
0	5013	7735.492332210968	3
0	5016	7739.920121023779	4
0	5019	7747.602493830432	3
0	5021	7751.368560674396	4
0	5024	7756.080535249507	3
0	5026	7757.202945865032	2
0	5028	7759.540881350835	3
0	5031	7775.612845820099	4
0	5034	7778.970051139368	5
0	5037	7781.84267420251	4
0	5039	7786.721007738613	3
0	5041	7789.163076588421	2
0	5043	7790.628236655774	3
0	5046	7792.439565337393	2
0	5048	7795.086397869166	3
0	5051	7795.568183463188	4
0	5054	7796.56926287992	3
0	5056	7806.722911649247	4
0	5059	7813.255616389497	3
0	5061	7820.497639852074	2
0	5063	7820.503589983567	3
0	5066	7821.535625864582	4
0	5069	7824.905490151053	3
0	5071	7827.570473491514	4
0	5074	7827.952414683541	3
0	5076	7831.840415851236	4
0	5079	7833.295193266191	5
0	5082	7834.168648416344	4
0	5084	7835.259692238391	3
0	5086	7842.949733296167	4
0	5089	7848.634094626504	3
0	5091	7854.742310988596	4
0	5094	7856.707386130544	3
0	5096	7860.351153232613	4
0	5099	7860.853335125332	3
0	5101	7861.003058297845	2
0	5103	7862.749773717311	1
0	5105	7867.135902977383	2
0	5108	7871.851763945141	3
0	5111	7896.421603044505	4
0	5114	7898.761218397408	5
0	5117	7904.898343599945	4
0	5119	7905.427586908184	3
0	5121	7907.305973531155	4
0	5124	7907.371997237749	5
0	5127	7912.080508231618	6
0	5130	7921.27672165548	5
0	5132	7921.386285128968	6
0	5135	7922.44867946764	5
0	5137	7922.60911006589	4
0	5139	7924.158363374266	5
0	5142	7933.826254076848	6
0	5145	7934.986269979054	5
0	5147	7942.144732609643	6
0	5150	7954.335318974463	5
0	5152	7955.694800826083	6
0	5155	7958.302470263779	7
0	5158	7959.051277382352	6
0	5160	7966.964861214167	5
0	5162	7968.062253401339	6
0	5165	7971.047718594928	5
0	5167	7979.766611909735	4
0	5169	7979.845266495596	5
0	5172	7984.835088656953	4
0	5174	7985.95647904368	5
0	5177	7987.107731746815	6
0	5180	7987.777941398851	5
0	5182	7988.563309246976	6
0	5185	7990.025318454973	7
0	5188	7996.494953367726	8
0	5190	7996.855437692963	7
0	5193	7999.363542460467	8
0	5195	7999.70558614254	7
0	5198	8003.024255601755	8
0	5200	8003.764028996189	7
0	5203	8023.899759400233	6
0	5205	8025.663991532793	7
0	5208	8028.146228498211	6
0	5210	8038.093913389345	5
0	5212	8047.624287174101	6
0	5215	8050.272457541995	5
0	5217	8051.17561633788	6
0	5220	8055.33674685675	5
0	5222	8056.592663796684	6
0	5225	8060.952407670345	5
0	5227	8061.207408303251	4
0	5229	8070.360276096209	3
0	5231	8073.343901432758	4
0	5234	8073.925657070445	5
0	5237	8077.382844281801	4
0	5239	8081.511083049163	3
0	5241	8081.57922891135	4
0	5244	8081.935990075189	3
0	5246	8091.869889666917	4
0	5249	8098.288192276609	5
0	5252	8099.084408411899	4
0	5254	8101.247497778003	5
0	5257	8102.475655300584	4
0	5259	8102.852333006463	5
0	5262	8107.939669258681	4
0	5264	8113.231719560845	5
0	5267	8117.794050220725	6
0	5270	8120.954796636446	5
0	5272	8122.893261714131	4
0	5274	8126.382555861726	5
0	5277	8126.436099673907	6
0	5280	8127.493363282233	7
0	5283	8127.5636885752	8
0	5285	8127.971512150533	7
0	5288	8137.316171195996	8
0	5290	8138.743135812614	9
0	5292	8146.39489362238	8
0	5295	8150.450335345333	7
0	5298	8151.284061623333	6
0	5300	8164.33415585968	7
0	5303	8165.089534619504	8
0	5305	8178.714781674405	7
0	5308	8179.22028616661	8
0	5310	8191.274385796696	7
0	5313	8193.650062316141	8
0	5315	8194.361240181175	9
0	5317	8195.447175556107	8
0	5320	8199.56256048004	9
0	5322	8200.49438193714	8
0	5325	8200.661899760364	7
0	5328	8201.749383729974	6
0	5330	8205.319997908792	7
0	5333	8206.071840893268	6
0	5335	8206.092404686396	5
0	5337	8206.849685081907	4
0	5339	8213.292898580359	3
0	5341	8215.49840878489	4
0	5344	8216.665359883862	5
0	5347	8217.347969765411	6
0	5350	8217.465518811885	5
0	5352	8222.347840887809	4
0	5354	8223.551356561096	5
0	5357	8237.772072940528	4
0	5359	8239.220723005734	5
0	5362	8240.095625250639	4
0	5364	8247.962199392596	3
0	5366	8250.233383976739	4
0	5369	8256.863603590779	5
0	5372	8259.81312658971	6
0	5375	8268.140130180665	5
0	5377	8269.218306750672	4
0	5379	8273.818473482668	3
0	5381	8277.542832216718	4
0	5384	8279.642767334187	3
0	5386	8281.587731404622	4
0	5389	8286.384533504216	3
0	5391	8288.626098837335	2
0	5393	8291.075766233779	3
0	5396	8294.251849847305	2
0	5398	8302.243050218731	1
0	5400	8312.379677945134	2
0	5403	8322.28187148735	1
0	5405	8327.303234054378	2
0	5408	8327.856177331117	3
0	5411	8342.235720372352	2
0	5413	8343.082451764403	1
0	5415	8358.743157155764	2
0	5418	8361.661816598529	3
0	5421	8365.833835023445	4
0	5424	8367.616370573742	5
0	5427	8375.431502207228	4
0	5429	8380.72559953759	3
0	5431	8382.037247691092	4
0	5434	8405.649395286014	5
0	5437	8409.685382724046	6
0	5440	8410.033329109235	7
0	5443	8410.45493082767	6
0	5445	8410.811221211377	7
0	5448	8414.849083889867	6
0	5450	8422.845500360805	5
0	5452	8424.948765244703	4
0	5454	8429.049844648745	5
0	5457	8429.302717400948	4
0	5459	8437.271596769174	5
0	5462	8439.510287604262	4
0	5464	8444.406151887624	3
0	5466	8454.611499847406	2
0	5468	8460.597362018804	3
0	5471	8470.676857470877	4
0	5474	8475.892895571401	3
0	5476	8505.248841374503	4
0	5479	8509.920405090966	5
0	5482	8513.119124864101	4
0	5484	8517.469593192119	5
0	5487	8518.72611877352	6
0	5490	8522.409511702317	5
0	5492	8529.946368252353	4
0	5494	8532.26233080572	5
0	5497	8535.060854865732	6
0	5500	8539.655204789666	7
0	5503	8543.582122517162	6
0	5505	8545.335851183298	7
0	5508	8552.408577368468	6
0	5510	8553.531342274287	7
0	5513	8554.016737628215	6
0	5515	8558.91132552821	7
0	5518	8563.479209770728	6
0	5520	8568.728968260565	7
0	5523	8578.423233309314	8
0	5525	8581.86485733322	9
0	5527	8582.656737567695	10
0	5529	8582.879010686315	9
0	5532	8592.210880464586	8
0	5535	8593.134781159965	9
0	5537	8604.094268475296	10
0	5539	8605.201368094731	11
0	5541	8609.665994877146	12
0	5543	8625.835317068229	13
0	5545	8627.564311163252	14
0	5547	8628.092666410677	13
0	5550	8628.682951361588	14
0	5552	8630.642816937253	13
0	5555	8634.480003332202	12
0	5558	8640.501047539727	13
0	5560	8641.103961369615	12
0	5563	8641.260590145328	13
0	5565	8646.62120176156	14
0	5567	8656.690242503541	15
0	5569	8666.330843010313	14
0	5572	8672.203732093758	13
0	5575	8672.567975835637	14
0	5577	8673.389281891733	15
0	5579	8676.304976786906	16
0	5581	8676.38466466581	17
0	5583	8679.412195988845	18
0	5585	8683.989296453349	17
0	5588	8684.760917042098	16
0	5591	8685.639452786156	17
0	5593	8685.808752385135	16
0	5596	8687.938683182401	15
0	5599	8690.345358487084	14
0	5602	8690.682184393379	15
0	5604	8691.247666634029	14
0	5607	8692.717319133552	13
0	5610	8693.662908552616	14
0	5612	8694.344568339652	15
0	5614	8702.683859342029	16
0	5616	8705.557329847794	15
0	5619	8705.628395612355	16
0	5621	8711.942991716598	17
0	5623	8713.271458161964	16
0	5626	8715.076701016671	17
0	5628	8721.720044205157	18
0	5630	8722.274821722225	19
0	5632	8725.403305831575	18
0	5635	8725.596645587715	17
0	5638	8728.144352751369	16
0	5641	8728.695854686669	15
0	5644	8729.230074715443	16
0	5646	8730.476183685953	15
0	5649	8731.504399089874	14
0	5652	8734.565459128414	13
0	5655	8740.046966166544	12
0	5658	8744.681268038558	11
0	5661	8749.666202630646	10
0	5664	8758.640786517463	9
0	5667	8760.331544523049	8
0	5670	8760.794758062742	7
0	5673	8764.546243444601	6
0	5675	8767.003500784921	7
0	5678	8768.741291623681	6
0	5680	8769.71365155518	5
0	5682	8777.071644200338	4
0	5684	8777.149801329548	3
0	5686	8783.038516933868	2
0	5688	8788.185124785163	3
0	5691	8794.888999041517	4
0	5694	8801.508880715975	5
0	5697	8802.315475414344	4
0	5699	8802.627980564132	3
0	5701	8802.697857278896	2
0	5703	8804.511893435505	1
0	5705	8806.619783947631	2
0	5708	8825.589756708719	1
0	5710	8829.079114822781	2
0	5713	8831.245062852784	1
0	5715	8836.876065753746	2
0	5718	8837.413180498633	3
0	5721	8849.484254565224	2
0	5723	8853.178175050127	1
0	5725	8856.168232273321	2
0	5728	8860.031917759543	3
0	5731	8863.198214742655	2
0	5733	8878.740191438337	1
0	5735	8897.684237197407	2
0	5738	8899.807247736757	3
0	5741	8901.791168861684	2
0	5743	8915.834439067983	3
0	5746	8916.995190992274	4
0	5749	8917.950559764412	5
0	5752	8918.373486096256	4
0	5754	8921.807361926755	5
0	5757	8931.286599861018	6
0	5760	8935.418227495329	7
0	5763	8938.753594203374	6
0	5765	8939.144900016428	7
0	5768	8942.662927632445	6
0	5770	8942.918334778024	7
0	5773	8947.552037640642	8
0	5775	8948.731589103874	7
0	5778	8949.337106271668	8
0	5780	8953.54457567312	7
0	5783	8962.920108407123	6
0	5785	8964.743472506103	5
0	5787	8973.278867780492	4
0	5789	8983.681174447737	3
0	5791	8985.671520227418	4
0	5794	8994.605279285659	3
0	5796	8998.313935003637	4
0	5799	8999.227045466535	3
0	5801	9000.809804788004	2
0	5803	9001.223801463462	3
0	5806	9009.924535973193	4
0	5809	9025.841743309712	5
0	5812	9026.93470859516	4
0	5814	9029.952701196878	3
0	5816	9040.562633822122	2
0	5818	9043.36703151792	3
0	5821	9050.270871983956	2
0	5823	9056.697768743126	3
0	5826	9057.891058197237	4
0	5829	9061.773113956263	3
0	5831	9067.187547574346	4
0	5834	9074.513298449348	3
0	5836	9080.742292837449	4
0	5839	9081.319180500071	5
0	5842	9087.861906498747	4
0	5844	9103.090356861354	3
0	5846	9112.600330845064	2
0	5848	9114.743040686502	3
0	5851	9115.456916014643	2
0	5853	9127.044294676061	3
0	5856	9127.764669770216	4
0	5859	9129.585189522939	3
0	5861	9130.120022285479	4
0	5864	9131.361622184574	5
0	5867	9147.753251286689	6
0	5870	9164.289232615919	7
0	5873	9164.521301353169	6
0	5875	9170.15590624095	5
0	5877	9172.082859994035	4
0	5879	9181.130612949073	3
0	5881	9183.477273538139	4
0	5884	9183.55303620351	5
0	5887	9185.587586471486	6
0	5890	9186.831812358794	5
0	5892	9194.642922157311	6
0	5895	9197.315853651045	7
0	5898	9201.454811563189	8
0	5900	9202.888812820497	9
0	5902	9203.968637821154	10
0	5904	9204.403623535755	11
0	5906	9206.949607027032	12
0	5908	9211.859431599122	11
0	5911	9216.67487060395	10
0	5914	9222.512359252067	9
0	5917	9225.664292802849	10
0	5919	9235.292724243364	9
0	5922	9237.801194457661	8
0	5925	9239.64873105951	9
0	5927	9240.171168205757	8
0	5930	9240.634391191541	9
0	5932	9241.096265919085	8
0	5935	9257.544177354281	9
0	5937	9258.900892446438	8
0	5940	9260.791181834355	7
0	5943	9262.7473411312	6
0	5945	9263.207515231338	7
0	5948	9265.770061850791	8
0	5950	9269.268067815866	7
0	5953	9279.578882981206	8
0	5955	9283.755013520982	9
0	5957	9286.300483055434	10
0	5959	9290.803672961016	11
0	5961	9298.718989947493	10
0	5964	9300.688267717432	9
0	5967	9304.878217826195	8
0	5970	9306.892715506779	7
0	5973	9309.475115040106	8
0	5975	9311.004710555855	7
0	5978	9311.680880375736	6
0	5980	9318.25368163546	7
0	5983	9327.282803001971	6
0	5985	9331.974146125895	5
0	5987	9332.349961157908	4
0	5989	9336.520963243895	5
0	5992	9337.241916401823	6
0	5995	9340.771237503082	5
0	5997	9344.641865972307	4
0	5999	9350.599825112104	5
0	6002	9355.196949014795	4
0	6004	9355.97903730764	5
0	6007	9364.029793396177	6
0	6010	9365.895677420161	5
0	6012	9369.172519187804	4
0	6014	9379.633581172675	5
0	6017	9396.292214017379	6
0	6020	9396.831219088602	7
0	6023	9400.696788584311	8
0	6025	9403.26102723212	7
0	6028	9404.121333248934	6
0	6030	9405.063409075706	5
0	6032	9410.752655291478	6
0	6035	9412.322914042684	7
0	6038	9416.534249808875	8
0	6040	9418.20365571123	9
0	6042	9418.208348098657	8
0	6045	9422.664423043483	9
0	6047	9422.997073645942	8
0	6050	9434.840736265747	9
0	6052	9436.340266666824	10
0	6054	9443.754171904895	9
0	6057	9445.303189569648	8
0	6060	9445.698750130884	7
0	6063	9453.531347064427	8
0	6065	9454.069818023574	7
0	6068	9459.793248237774	8
0	6070	9469.435884379432	7
0	6073	9469.463352462662	6
0	6075	9474.592692217859	5
0	6077	9477.687528220631	4
0	6079	9478.072108572752	3
0	6081	9481.229743105131	2
0	6083	9481.942707857444	3
0	6086	9489.803085072175	2
0	6088	9494.239169436709	3
0	6091	9494.460723891866	4
0	6094	9495.904355528596	3
0	6096	9496.043736360906	2
0	6098	9496.112780996227	3
0	6101	9501.062154615768	2
0	6103	9511.396344663056	3
0	6106	9511.507300267927	2
0	6108	9515.4104676408	3
0	6111	9517.571385010051	4
0	6114	9518.089942839623	5
0	6117	9521.219210946992	6
0	6120	9525.634931496652	5
0	6122	9530.837398545039	6
0	6125	9538.819747633667	5
0	6127	9540.36457011395	4
0	6129	9549.343940672437	3
0	6131	9552.105326939624	4
0	6134	9555.26836751107	5
0	6137	9557.546430781248	4
0	6139	9559.623633037531	5
0	6142	9560.650830554109	6
0	6145	9567.489580335454	5
0	6147	9577.012433564756	6
0	6150	9578.988572510334	5
0	6152	9582.731828258757	4
0	6154	9583.476910113868	5
0	6157	9588.218436374525	6
0	6160	9589.497968807421	5
0	6162	9589.75906061023	6
0	6165	9594.251423121098	5
0	6167	9600.550555576774	4
0	6169	9601.220451741268	5
0	6172	9603.272692096769	6
0	6175	9604.054598465759	7
0	6178	9606.145680376978	8
0	6180	9607.027293167924	7
0	6183	9611.259557830963	6
0	6185	9616.72117666364	7
0	6188	9619.597299375354	8
0	6190	9623.069368713826	7
0	6193	9625.175986159708	6
0	6195	9625.837663221306	5
0	6197	9628.507642877365	6
0	6200	9631.922932042888	7
0	6203	9639.803195408177	6
0	6205	9651.934527454018	7
0	6208	9659.278909932526	6
0	6210	9660.119089525856	5
0	6212	9661.872713320227	6
0	6215	9665.001006821591	7
0	6218	9675.398165545277	6
0	6220	9684.000421753442	5
0	6222	9690.916565338058	6
0	6225	9691.661746833787	7
0	6228	9692.340253505566	8
0	6230	9699.17690989294	7
0	6233	9700.649882714896	6
0	6235	9713.432938467078	5
0	6237	9716.324662548747	6
0	6240	9732.332780003895	7
0	6243	9735.715219709136	6
0	6245	9736.808813343665	7
0	6248	9740.498601069802	6
0	6250	9746.874343119663	7
0	6253	9750.874424732379	6
0	6255	9763.264097367966	5
0	6257	9772.393722585729	6
0	6260	9774.254674120202	7
0	6263	9777.223845067809	8
0	6265	9777.380198584324	7
0	6268	9777.921560230802	6
0	6270	9779.551464136769	7
0	6273	9783.276957238088	6
0	6275	9792.546925060782	7
0	6278	9793.486849668963	6
0	6280	9795.028631971725	5
0	6282	9795.890824564193	4
0	6284	9799.062683673886	3
0	6286	9817.85261797123	4
0	6289	9825.057988743323	5
0	6292	9830.091626441528	4
0	6294	9836.647130943371	3
0	6296	9840.977216946537	4
0	6299	9841.779712136644	5
0	6302	9844.989852875352	4
0	6304	9846.662158404479	5
0	6307	9848.119469926723	4
0	6309	9849.77140755144	3
0	6311	9854.620177140719	2
0	6313	9872.534613178414	3
0	6316	9874.615129835108	2
0	6318	9874.833201046395	3
0	6321	9875.329129529743	4
0	6324	9884.35977588902	3
0	6326	9893.528613658957	4
0	6329	9894.18828015993	3
0	6331	9897.181908943776	2
0	6333	9902.790476187675	1
0	6335	9903.788140602039	0
0	6337	9920.358668738447	1
0	6340	9923.036305785343	0
0	6342	9929.02705095317	1
0	6345	9930.73042290922	2
0	6348	9942.879740334658	3
0	6351	9949.106987212998	4
0	6354	9950.212256996978	5
0	6357	9956.550973118404	4
0	6359	9960.474705945799	5
0	6362	9961.696554614739	4
0	6364	9968.363260795741	3
0	6366	9968.984524518178	4
0	6369	9969.892592907476	5
0	6372	9971.213741980912	6
0	6375	9974.602047067019	5
0	6377	9974.852613825426	6
0	6380	9979.869890895558	7
0	6383	9983.181804205256	6
0	6385	9989.918562926834	7
0	6388	9997.464027097062	6
0	6390	9998.551797053083	5
0	6392	10003.215822617147	4
0	6394	10004.002490256465	3
0	6396	10008.392418114847	2
0	6398	10011.936121152005	3
0	6401	10019.456743290497	4
0	6404	10021.703847605855	5
0	6407	10033.068442687137	4
0	6409	10033.563247593751	3
0	6411	10039.536233118499	2
0	6413	10041.33191290995	3
0	6416	10048.182782319476	2
0	6418	10058.460853559339	1
0	6420	10073.161017264896	2
0	6423	10076.602739688884	3
0	6426	10079.678576759854	2
0	6428	10081.271400276844	3
0	6431	10082.156476829991	2
0	6433	10084.064515521274	1
0	6435	10085.943290736435	2
0	6438	10097.723227907674	3
0	6441	10099.883077872703	2
0	6443	10104.045831526045	3
0	6446	10104.561757674257	4
0	6449	10106.28858463809	3
0	6451	10106.623196588766	2
0	6453	10112.146905370643	3
0	6456	10119.651962919625	4
0	6459	10124.914837815658	3
0	6461	10133.21019691591	2
0	6463	10137.002394362979	3
0	6466	10138.555780850896	2
0	6468	10154.212299345315	3
0	6471	10161.636289995797	4
0	6474	10164.481861698334	5
0	6477	10170.105820092156	4
0	6479	10173.511395446757	5
0	6482	10188.812809921265	4
0	6484	10193.074226821694	3
0	6486	10207.309997600781	4
0	6489	10223.136392544757	3
0	6491	10223.706957359604	4
0	6494	10225.503772730156	3
0	6496	10225.660607191271	4
0	6499	10225.825140398002	3
0	6501	10228.780907701658	2
0	6503	10231.756781951233	3
0	6506	10234.507062169918	4
0	6509	10241.566975847634	3
0	6511	10251.440536030214	4
0	6514	10259.043522839972	3
0	6516	10262.740790335593	2
0	6518	10280.913627722913	3
0	6521	10280.993237716412	2
0	6523	10288.126642149737	3
0	6526	10292.236376123716	4
0	6529	10300.793717488739	5
0	6532	10305.613202387305	4
0	6534	10308.986539564392	3
0	6536	10316.654960754601	4
0	6539	10318.021744041753	3
0	6541	10318.429959700561	4
0	6544	10319.798044840424	5
0	6547	10325.707656652807	4
0	6549	10328.411333574352	5
0	6552	10337.301846300796	4
0	6554	10342.072558712282	5
0	6557	10358.544324316465	6
0	6560	10362.074967840756	7
0	6563	10365.845974386165	6
0	6565	10366.654760398842	7
0	6568	10382.350256705042	6
0	6570	10384.385589400317	5
0	6572	10391.792085858054	4
0	6574	10406.18120230668	5
0	6577	10406.628509450798	4
0	6579	10406.874751934319	5
0	6582	10411.239510886968	6
0	6585	10414.182448566591	7
0	6588	10425.492489868446	6
0	6590	10430.631330123019	7
0	6593	10433.110460521646	6
0	6595	10462.539856704166	5
0	6597	10480.787970887136	4
0	6599	10485.170658901236	5
0	6602	10490.466912000377	6
0	6605	10497.109503428127	5
0	6607	10497.633086925633	4
0	6609	10509.192104311903	5
0	6612	10509.582086779936	6
0	6615	10516.023962231249	7
0	6618	10521.600745377827	8
0	6620	10523.574031790038	7
0	6623	10523.714077617758	6
0	6625	10527.696866117005	7
0	6628	10531.618279962199	6
0	6630	10540.292067535987	5
0	6632	10540.553443349423	4
0	6634	10542.888983626439	3
0	6636	10550.874767534536	2
0	6638	10555.130761650774	3
0	6641	10559.609243503588	4
0	6644	10575.505786920139	3
0	6646	10578.887764932511	4
0	6649	10580.486357338314	5
0	6652	10586.073795174139	6
0	6655	10597.305679520642	7
0	6658	10605.559858962506	8
0	6660	10605.978101849225	9
0	6662	10607.275104370606	10
0	6664	10611.052393547035	9
0	6667	10612.150443148009	10
0	6669	10612.783005324263	9
0	6672	10615.241762381028	10
0	6674	10625.483134220663	9
0	6677	10627.732886186316	10
0	6679	10628.790262322793	9
0	6682	10634.074328338366	8
0	6685	10643.429975419617	7
0	6688	10644.42369548924	6
0	6690	10655.407450507247	5
0	6692	10657.767459894895	4
0	6694	10664.239151363267	3
0	6696	10668.941099178244	2
0	6698	10670.062337855568	3
0	6701	10678.031900644822	2
0	6703	10678.594959738292	1
0	6705	10682.873008699267	2
0	6708	10694.883774534807	3
0	6711	10700.12989691824	2
0	6713	10706.40196740694	3
0	6716	10713.606581529326	4
0	6719	10724.238052885176	5
0	6722	10724.987244794827	4
0	6724	10731.540631998201	5
0	6727	10732.604620395809	4
0	6729	10736.214351534552	5
0	6732	10738.228350463923	4
0	6734	10739.557582046201	5
0	6737	10739.656472110168	4
0	6739	10746.597087789195	3
0	6741	10750.771924225673	2
0	6743	10754.556247048535	1
0	6745	10754.820110967942	2
0	6748	10755.462069805939	3
0	6751	10768.938170769169	2
0	6753	10769.455665659225	1
0	6755	10770.629469852094	2
0	6758	10788.151784767008	3
0	6761	10788.684207728143	2
0	6763	10809.181728742633	3
0	6766	10812.251153824755	2
0	6768	10817.630517056334	3
0	6771	10820.946577932168	2
0	6773	10834.353000111493	3
0	6776	10847.193443579209	4
0	6779	10855.886097544162	3
0	6781	10861.558858084635	2
0	6783	10862.584611028497	3
0	6786	10868.026350249906	4
0	6789	10874.505684719208	5
0	6792	10874.86837865343	6
0	6795	10878.174194727482	7
0	6798	10879.110636866109	6
0	6800	10883.962613178185	7
0	6803	10888.766273245132	6
0	6805	10891.433309527384	5
0	6807	10892.047176381479	6
0	6810	10894.903426253003	5
0	6812	10895.228038854695	4
0	6814	10906.475729560043	3
0	6816	10908.007064668404	4
0	6819	10909.864608367031	5
0	6822	10912.584836959539	6
0	6825	10917.130008952322	7
0	6828	10918.12125408432	6
0	6830	10918.681162771499	5
0	6832	10922.187721177199	4
0	6834	10928.765167466617	5
0	6837	10937.422353175606	6
0	6840	10943.221666385445	7
0	6843	10946.9937998203	6
0	6845	10949.692671920842	5
0	6847	10962.673609370708	4
0	6849	10966.839902257791	5
0	6852	10970.698477650134	6
0	6855	10974.879628886434	5
0	6857	10975.876949267306	4
0	6859	10989.194596185135	3
0	6861	11003.118511477569	4
0	6864	11006.18086087715	3
0	6866	11015.344078467171	4
0	6869	11016.185047456229	5
0	6872	11023.04428696385	6
0	6875	11027.945245971007	7
0	6878	11033.92853860833	8
0	6880	11035.147420737153	7
0	6883	11036.040912844649	8
0	6885	11039.644153213663	7
0	6888	11040.677676265854	6
0	6890	11042.295613839004	7
0	6893	11043.754492902282	6
0	6895	11050.860652194376	7
0	6898	11052.290613301072	6
0	6900	11060.136274964866	7
0	6903	11063.147924045536	6
0	6905	11063.413617657763	5
0	6907	11066.428806429777	4
0	6909	11067.833855222567	5
0	6912	11069.317982664064	6
0	6915	11069.714255430225	5
0	6917	11074.123561214285	6
0	6920	11075.023719116557	5
0	6922	11077.995955342546	4
0	6924	11082.283304531072	5
0	6927	11085.129189098798	4
0	6929	11087.324497869495	5
0	6932	11101.36792027283	6
0	6935	11108.275516059227	7
0	6938	11111.011127692978	8
0	6940	11113.575053948578	7
0	6943	11113.770757520021	8
0	6945	11115.786073485943	9
0	6947	11124.122220954109	8
0	6950	11131.623424051055	7
0	6953	11136.584646900903	8
0	6955	11137.939488968098	7
0	6958	11139.980501114684	6
0	6960	11143.589811685793	7
0	6963	11144.176726205475	6
0	6965	11144.8783530419	7
0	6968	11158.707185648928	6
0	6970	11163.664062747387	7
0	6973	11168.661228346076	8
0	6975	11170.714830984335	9
0	6977	11172.630789242117	8
0	6980	11177.425864103121	9
0	6982	11179.09884421368	10
0	6984	11180.728204370972	11
0	6986	11183.188290648626	10
0	6989	11184.589396011696	9
0	6992	11185.331794856549	8
0	6995	11185.504139669557	7
0	6998	11186.329966937863	8
0	7000	11188.739953190844	9
0	7002	11191.227326545631	10
0	7004	11195.20223339169	9
0	7007	11196.636449581481	10
0	7009	11200.66487518548	11
0	7011	11209.402021323361	12
0	7013	11214.038934328621	13
0	7015	11224.931551591965	14
0	7017	11233.155943460322	13
0	7020	11243.013181245244	14
0	7022	11246.450759303911	15
0	7024	11253.49038616033	14
0	7027	11256.395056328328	15
0	7029	11264.968866360678	16
0	7031	11265.685631215066	15
0	7034	11267.794688491104	14
0	7037	11269.912710877431	15
0	7039	11274.301701166226	16
0	7041	11276.532639820451	15
0	7044	11276.536209053188	16
0	7046	11282.743504263168	17
0	7048	11283.257564653188	16
0	7051	11287.310827190931	17
0	7053	11294.068308154462	18
0	7055	11305.379533329334	19
0	7057	11308.678023185857	20
0	7059	11314.561016804083	21
0	7061	11319.453923468264	20
0	7064	11323.113059545701	21
0	7066	11327.100701839759	20
0	7069	11330.69506851519	21
0	7071	11335.802999503939	22
0	7073	11336.364159948974	21
0	7076	11340.173750868597	20
0	7079	11353.333547651485	21
0	7081	11355.181339907145	20
0	7084	11355.27532160796	19
0	7087	11357.461647584709	20
0	7089	11362.242644093225	19
0	7092	11363.864143513174	20
0	7094	11364.811744249638	19
0	7097	11368.511774243023	18
0	7100	11368.801066158842	17
0	7103	11373.807364516562	18
0	7105	11374.601826102825	17
0	7108	11375.73850726909	16
0	7111	11380.577010345964	17
0	7113	11382.445202723281	16
0	7116	11387.508647993213	15
0	7119	11389.239262807971	14
0	7122	11393.221716523537	13
0	7125	11394.325330291249	14
0	7127	11399.663260727156	15
0	7129	11411.054439775142	16
0	7131	11412.012163124815	17
0	7133	11413.965686084021	18
0	7135	11415.298947089111	17
0	7138	11418.957543349402	18
0	7140	11428.791115654162	19
0	7142	11430.030423196714	20
0	7144	11431.301191371237	19
0	7147	11433.450315406917	20
0	7149	11437.143369224581	21
0	7151	11443.810643718947	20
0	7154	11445.983316097114	19
0	7157	11451.724721907355	20
0	7159	11461.574735309864	21
0	7161	11464.154499284139	20
0	7164	11469.517265118617	21
0	7166	11470.360024449503	20
0	7169	11471.824188273333	21
0	7171	11474.266991115736	20
0	7174	11476.702850498608	19
0	7177	11481.929953914479	20
0	7179	11484.122536190063	21
0	7181	11486.034593866776	22
0	7183	11486.936263323126	21
0	7186	11487.76132069723	22
0	7188	11489.53663837657	23
0	7190	11490.21019842874	22
0	7193	11491.079997848213	21
0	7196	11491.834441853169	20
0	7199	11498.784318449662	21
0	7201	11501.811704596077	20
0	7204	11502.817414297342	21
0	7206	11508.816345344228	20
0	7209	11509.1576625041	21
0	7211	11511.63453395449	20
0	7214	11513.138389437136	19
0	7217	11517.172036090118	20
0	7219	11519.700345930555	19
0	7222	11524.944983502538	18
0	7225	11527.120901195408	17
0	7228	11527.37289975104	18
0	7230	11531.541155089331	19
0	7232	11535.896752522375	18
0	7235	11538.85422333035	19
0	7237	11539.112631926571	18
0	7240	11539.5651459819	19
0	7242	11540.721114167747	18
0	7245	11545.56517324437	19
0	7247	11545.847795088598	20
0	7249	11547.809387279849	21
0	7251	11548.416966210491	20
0	7254	11551.577209580452	19
0	7257	11555.364901807484	20
0	7259	11567.280212639053	21
0	7261	11567.481927630108	20
0	7264	11569.80383255732	19
0	7267	11574.21732163729	18
0	7270	11593.041573902709	17
0	7273	11593.229098034769	16
0	7276	11593.26145323985	15
0	7279	11593.418397000294	16
0	7281	11593.454071062415	17
0	7283	11599.069439208671	16
0	7286	11608.866349057562	15
0	7289	11610.35800772005	14
0	7292	11613.852216422337	15
0	7294	11617.269059850122	16
0	7296	11620.23954626462	15
0	7299	11621.288061152725	14
0	7302	11621.613570621348	15
0	7304	11629.997830845866	14
0	7307	11630.440914178902	13
0	7310	11633.501478939061	12
0	7313	11634.006471276026	13
0	7315	11636.816210860592	14
0	7317	11644.241102938466	13
0	7320	11645.717004386104	12
0	7323	11649.925365968142	13
0	7325	11652.00080524915	14
0	7327	11652.862294070221	13
0	7330	11653.762441299711	14
0	7332	11655.280190261844	15
0	7334	11657.614101537101	16
0	7336	11661.730084283824	15
0	7339	11667.740352848018	16
0	7341	11669.44987842954	15
0	7344	11670.238773877651	14
0	7347	11674.645456194727	15
0	7349	11678.609757671395	14
0	7352	11679.599087197957	15
0	7354	11679.935839854779	14
0	7357	11684.24779040483	13
0	7360	11684.939940009148	14
0	7362	11689.879813867375	13
0	7365	11696.085453247314	14
0	7367	11700.771702179381	15
0	7369	11701.394486378794	16
0	7371	11702.20738029051	15
0	7374	11703.020613188208	14
0	7377	11704.750988902291	13
0	7380	11706.409365320626	12
0	7383	11706.776635136512	11
0	7386	11707.415123149024	12
0	7388	11709.162181082264	11
0	7391	11710.198668434392	12
0	7393	11711.001978604165	11
0	7396	11711.355845046023	10
0	7399	11711.793955615254	9
0	7402	11716.998351237898	10
0	7404	11717.938954650641	9
0	7407	11719.545282805518	8
0	7410	11721.600597600216	7
0	7413	11734.510161330383	6
0	7415	11736.378045507925	7
0	7418	11737.477234796166	8
0	7420	11739.159106014973	9
0	7422	11739.305980085065	8
0	7425	11739.871860236958	7
0	7428	11747.247592831093	6
0	7430	11758.956218071333	7
0	7433	11759.84778452015	8
0	7435	11762.93728093368	9
0	7437	11766.189442248106	8
0	7440	11768.098546632257	9
0	7442	11772.810074446316	8
0	7445	11782.942940230952	9
0	7447	11785.171133984228	8
0	7450	11786.356386047785	9
0	7452	11786.887542865274	8
0	7455	11790.616589377459	7
0	7458	11790.681798469481	6
0	7460	11792.938186314919	5
0	7462	11794.353609147077	4
0	7464	11795.090858735695	5
0	7467	11800.466822771636	4
0	7469	11800.637695794047	5
0	7472	11808.348831036307	4
0	7474	11809.52472652834	3
0	7476	11812.509226495894	4
0	7479	11822.258920397627	5
0	7482	11822.575226810772	6
0	7485	11824.191704662802	7
0	7488	11824.550062486071	6
0	7490	11828.054943328882	7
0	7493	11829.722718968025	8
0	7495	11832.649010886679	7
0	7498	11833.15059686435	8
0	7500	11834.465004868186	9
0	7502	11834.777874831017	10
0	7504	11837.60556444042	9
0	7507	11838.167726845012	8
0	7510	11840.553657802377	9
0	7512	11840.991150710515	8
0	7515	11849.992520554367	7
0	7518	11850.00914035204	8
0	7520	11853.46184210364	9
0	7522	11854.421306431491	10
0	7524	11856.103290071167	9
0	7527	11856.869210163579	10
0	7529	11861.146313677481	11
0	7531	11866.614953827238	12
0	7533	11870.790616590628	11
0	7536	11872.027504281702	12
0	7538	11874.300565578845	11
0	7541	11874.564440198043	10
0	7544	11875.151818100199	9
0	7547	11879.953747212024	8
0	7550	11881.777906573917	9
0	7552	11885.278996135788	8
0	7555	11894.742900538474	7
0	7558	11896.53304777361	6
0	7560	11899.060917414838	5
0	7562	11901.961037696879	6
0	7565	11902.395285277293	5
0	7567	11903.202810868043	6
0	7570	11912.020611969432	5
0	7572	11912.540268286335	6
0	7575	11922.684794121289	7
0	7578	11925.813833009732	8
0	7580	11933.591064835678	7
0	7583	11936.75438325395	8
0	7585	11937.090434987286	9
0	7587	11944.815732480273	8
0	7590	11945.45332858281	7
0	7593	11947.414572264382	6
0	7595	11947.75519954141	7
0	7598	11960.68900347528	8
0	7600	11961.063050985197	7
0	7603	11961.419453000999	6
0	7605	11961.636091067331	5
0	7607	11963.797357889624	4
0	7609	11967.032427499639	5
0	7612	11973.390051097608	4
0	7614	11975.859742947906	3
0	7616	11978.268746517	4
0	7619	11983.92898049093	5
0	7622	11983.964193080609	4
0	7624	11989.488255607809	3
0	7626	12004.067242222655	4
0	7629	12009.768375776566	3
0	7631	12015.241014673894	4
0	7634	12020.055419355639	3
0	7636	12021.95709052143	2
0	7638	12044.046884592764	1
0	7640	12046.983928934242	2
0	7643	12047.652699114683	3
0	7646	12053.041948648648	4
0	7649	12054.727963842146	3
0	7651	12062.842433282624	2
0	7653	12072.577001918015	1
0	7655	12079.218368417659	2
0	7658	12081.01639755998	1
0	7660	12090.013329611092	2
0	7663	12098.965585465727	3
0	7666	12108.612961910087	4
0	7669	12111.238658546446	5
0	7672	12112.51376385458	4
0	7674	12116.451290568483	5
0	7677	12117.859229213053	4
0	7679	12120.977384948149	5
0	7682	12122.629514738734	4
0	7684	12124.213734867477	3
0	7686	12126.542595194484	4
0	7689	12139.074108088652	5
0	7692	12139.719559595411	4
0	7694	12141.125376972659	5
0	7697	12146.358459309797	6
0	7700	12153.536830453411	5
0	7702	12154.047954644085	4
0	7704	12163.186237043185	3
0	7706	12163.78010705814	2
0	7708	12167.677286888455	3
0	7711	12171.07785978357	4
0	7714	12171.935312677308	5
0	7717	12178.586089108251	4
0	7719	12182.042112572069	3
0	7721	12193.440699381988	2
0	7723	12197.365388977504	3
0	7726	12203.044854784615	4
0	7729	12204.115727320289	5
0	7732	12209.85926805883	4
0	7734	12219.680372423172	5
0	7737	12223.923838705726	4
0	7739	12229.989350095009	5
0	7742	12243.666762875429	6
0	7745	12243.92323228988	7
0	7748	12244.066717585005	6
0	7750	12245.370613336962	7
0	7753	12251.36070606897	6
0	7755	12252.868654272539	5
0	7757	12256.068743432064	4
0	7759	12256.541750643366	3
0	7761	12260.735992879433	2
0	7763	12263.080875700232	3
0	7766	12265.953303855903	2
0	7768	12272.094022212181	3
0	7771	12274.518267912	2
0	7773	12282.775051923341	3
0	7776	12292.186020918541	2
0	7778	12302.005812442423	3
0	7781	12305.110856774433	2
0	7783	12316.216836814036	3
0	7786	12317.050881559833	4
0	7789	12318.755354114832	3
0	7791	12324.097514964195	4
0	7794	12326.659726114992	5
0	7797	12330.270916742071	6
0	7800	12331.711952181317	7
0	7803	12334.253656186681	8
0	7805	12338.842641151297	7
0	7808	12341.608810761943	6
0	7810	12342.273542704938	5
0	7812	12349.55953606175	4
0	7814	12351.459614496039	3
0	7816	12351.503204843055	4
0	7819	12354.684756459063	3
0	7821	12356.838678283386	4
0	7824	12367.941505570664	3
0	7826	12368.726947603957	4
0	7829	12377.464719832303	5
0	7832	12377.504409029933	6
0	7835	12385.768745536499	7
0	7838	12388.427389229596	6
0	7840	12395.545598124241	5
0	7842	12398.188918408572	6
0	7845	12399.154297602574	5
0	7847	12399.892289216917	6
0	7850	12402.518824603213	7
0	7853	12404.827358983223	6
0	7855	12408.970335998493	7
0	7858	12409.148437304256	8
0	7860	12411.867159157427	7
0	7863	12412.923674878803	6
0	7865	12424.53588348514	5
0	7867	12430.563611261266	6
0	7870	12433.805519218803	7
0	7873	12434.029679685936	6
0	7875	12434.582604039447	7
0	7878	12438.208627513273	8
0	7880	12438.4243100967	9
0	7882	12441.304462971782	10
0	7884	12447.655701572316	11
0	7886	12452.871334853919	10
0	7889	12453.204094238162	11
0	7891	12455.702958512851	12
0	7893	12459.964056598738	11
0	7896	12460.511581743772	10
0	7899	12465.075785817834	11
0	7901	12468.043300672259	10
0	7904	12469.514531548105	11
0	7906	12473.101592928504	12
0	7908	12477.060503858966	11
0	7911	12481.122458470572	12
0	7913	12484.10933266726	11
0	7916	12484.852992799801	12
0	7918	12490.277613264242	11
0	7921	12496.044016459108	10
0	7924	12499.943014731794	9
0	7927	12506.58116529354	8
0	7930	12509.481054471862	7
0	7933	12513.06350792089	6
0	7935	12522.577346492883	5
0	7937	12552.341357550441	6
0	7940	12552.807516230552	7
0	7943	12553.151047527274	6
0	7945	12553.467560654813	7
0	7948	12556.566610072792	6
0	7950	12556.640155466339	5
0	7952	12560.114417348487	4
0	7954	12563.215464918113	5
0	7957	12566.9363520518	6
0	7960	12573.667174939994	5
0	7962	12573.947449997785	6
0	7965	12574.005372966929	7
0	7968	12586.922760073337	6
0	7970	12588.692384656294	5
0	7972	12590.306994763262	4
0	7974	12591.074665609671	5
0	7977	12591.64608327348	4
0	7979	12596.506732173281	5
0	7982	12605.051388588134	6
0	7985	12608.371708181702	5
0	7987	12615.13000705473	6
0	7990	12617.139077747742	5
0	7992	12619.985078572554	6
0	7995	12626.21969670171	7
0	7998	12637.048538027443	6
0	8000	12639.591418229998	7
0	8003	12645.329756493724	8
0	8005	12647.60645167167	9
0	8007	12649.570880774337	8
0	8010	12653.651865617603	9
0	8012	12655.470029246167	10
0	8014	12659.874110596778	11
0	8016	12662.340976309907	10
0	8019	12663.235689054322	9
0	8022	12665.148180580601	8
0	8025	12666.663403719201	7
0	8028	12666.95159881579	6
0	8030	12669.268986136255	7
0	8033	12674.234363364004	6
0	8035	12675.963822176576	5
0	8037	12677.279036744243	4
[...]
1	7325	11652.00080524915	7
1	7327	11652.862294070221	6
1	7330	11653.762441299711	7
1	7332	11655.280190261844	8
1	7334	11657.614101537101	9
1	7336	11661.730084283824	8
1	7339	11667.740352848018	9
1	7341	11669.44987842954	8
1	7344	11670.238773877651	7
1	7347	11674.645456194727	8
1	7349	11678.609757671395	7
1	7352	11679.599087197957	8
1	7354	11679.935839854779	7
1	7357	11684.24779040483	6
1	7360	11684.939940009148	7
1	7362	11689.879813867375	6
1	7365	11696.085453247314	7
1	7367	11700.771702179381	8
1	7369	11701.394486378794	9
1	7371	11702.20738029051	8
1	7374	11703.020613188208	7
1	7377	11704.750988902291	6
1	7380	11706.409365320626	5
1	7383	11706.776635136512	4
1	7386	11707.415123149024	5
1	7388	11709.162181082264	4
1	7391	11710.198668434392	5
1	7393	11711.001978604165	4
1	7396	11711.355845046023	3
1	7399	11711.793955615254	2
1	7402	11716.998351237898	3
1	7404	11717.938954650641	2
1	7407	11719.545282805518	1
1	7410	11721.600597600216	0
1	7413	11734.510161330383	0
1	7415	11736.378045507925	0
1	7418	11737.477234796166	1
1	7420	11739.159106014973	2
1	7422	11739.305980085065	1
1	7425	11739.871860236958	0
1	7428	11747.247592831093	0
1	7430	11758.956218071333	0
1	7433	11759.84778452015	1
1	7435	11762.93728093368	2
1	7437	11766.189442248106	1
1	7440	11768.098546632257	2
1	7442	11772.810074446316	1
1	7445	11782.942940230952	2
1	7447	11785.171133984228	1
1	7450	11786.356386047785	2
1	7452	11786.887542865274	1
1	7455	11790.616589377459	0
1	7458	11790.681798469481	0
1	7460	11792.938186314919	0
1	7462	11794.353609147077	0
1	7464	11795.090858735695	0
1	7467	11800.466822771636	0
1	7469	11800.637695794047	0
1	7472	11808.348831036307	0
1	7474	11809.52472652834	0
1	7476	11812.509226495894	0
1	7479	11822.258920397627	0
1	7482	11822.575226810772	0
1	7485	11824.191704662802	0
1	7488	11824.550062486071	0
1	7490	11828.054943328882	0
1	7493	11829.722718968025	1
1	7495	11832.649010886679	0
1	7498	11833.15059686435	1
1	7500	11834.465004868186	2
1	7502	11834.777874831017	3
1	7504	11837.60556444042	2
1	7507	11838.167726845012	1
1	7510	11840.553657802377	2
1	7512	11840.991150710515	1
1	7515	11849.992520554367	0
1	7518	11850.00914035204	1
1	7520	11853.46184210364	2
1	7522	11854.421306431491	3
1	7524	11856.103290071167	2
1	7527	11856.869210163579	3
1	7529	11861.146313677481	4
1	7531	11866.614953827238	5
1	7533	11870.790616590628	4
1	7536	11872.027504281702	5
1	7538	11874.300565578845	4
1	7541	11874.564440198043	3
1	7544	11875.151818100199	2
1	7547	11879.953747212024	1
1	7550	11881.777906573917	2
1	7552	11885.278996135788	1
1	7555	11894.742900538474	0
1	7558	11896.53304777361	0
1	7560	11899.060917414838	0
1	7562	11901.961037696879	0
1	7565	11902.395285277293	0
1	7567	11903.202810868043	0
1	7570	11912.020611969432	0
1	7572	11912.540268286335	0
1	7575	11922.684794121289	0
1	7578	11925.813833009732	1
1	7580	11933.591064835678	0
1	7583	11936.75438325395	1
1	7585	11937.090434987286	2
1	7587	11944.815732480273	1
1	7590	11945.45332858281	0
1	7593	11947.414572264382	0
1	7595	11947.75519954141	0
1	7598	11960.68900347528	1
1	7600	11961.063050985197	0
1	7603	11961.419453000999	0
1	7605	11961.636091067331	0
1	7607	11963.797357889624	0
1	7609	11967.032427499639	0
1	7612	11973.390051097608	0
1	7614	11975.859742947906	0
1	7616	11978.268746517	0
1	7619	11983.92898049093	0
1	7622	11983.964193080609	0
1	7624	11989.488255607809	0
1	7626	12004.067242222655	0
1	7629	12009.768375776566	0
1	7631	12015.241014673894	0
1	7634	12020.055419355639	0
1	7636	12021.95709052143	0
1	7638	12044.046884592764	0
1	7640	12046.983928934242	0
1	7643	12047.652699114683	0
1	7646	12053.041948648648	0
1	7649	12054.727963842146	0
1	7651	12062.842433282624	0
1	7653	12072.577001918015	0
1	7655	12079.218368417659	0
1	7658	12081.01639755998	0
1	7660	12090.013329611092	0
1	7663	12098.965585465727	0
1	7666	12108.612961910087	0
1	7669	12111.238658546446	0
1	7672	12112.51376385458	0
1	7674	12116.451290568483	0
1	7677	12117.859229213053	0
1	7679	12120.977384948149	0
1	7682	12122.629514738734	0
1	7684	12124.213734867477	0
1	7686	12126.542595194484	0
1	7689	12139.074108088652	0
1	7692	12139.719559595411	0
1	7694	12141.125376972659	0
1	7697	12146.358459309797	0
1	7700	12153.536830453411	0
1	7702	12154.047954644085	0
1	7704	12163.186237043185	0
1	7706	12163.78010705814	0
1	7708	12167.677286888455	0
1	7711	12171.07785978357	0
1	7714	12171.935312677308	0
1	7717	12178.586089108251	0
1	7719	12182.042112572069	0
1	7721	12193.440699381988	0
1	7723	12197.365388977504	0
1	7726	12203.044854784615	0
1	7729	12204.115727320289	0
1	7732	12209.85926805883	0
1	7734	12219.680372423172	0
1	7737	12223.923838705726	0
1	7739	12229.989350095009	0
1	7742	12243.666762875429	0
1	7745	12243.92323228988	0
1	7748	12244.066717585005	0
1	7750	12245.370613336962	0
1	7753	12251.36070606897	0
1	7755	12252.868654272539	0
1	7757	12256.068743432064	0
1	7759	12256.541750643366	0
1	7761	12260.735992879433	0
1	7763	12263.080875700232	0
1	7766	12265.953303855903	0
1	7768	12272.094022212181	0
1	7771	12274.518267912	0
1	7773	12282.775051923341	0
1	7776	12292.186020918541	0
1	7778	12302.005812442423	0
1	7781	12305.110856774433	0
1	7783	12316.216836814036	0
1	7786	12317.050881559833	0
1	7789	12318.755354114832	0
1	7791	12324.097514964195	0
1	7794	12326.659726114992	0
1	7797	12330.270916742071	0
1	7800	12331.711952181317	0
1	7803	12334.253656186681	1
1	7805	12338.842641151297	0
1	7808	12341.608810761943	0
1	7810	12342.273542704938	0
1	7812	12349.55953606175	0
1	7814	12351.459614496039	0
1	7816	12351.503204843055	0
1	7819	12354.684756459063	0
1	7821	12356.838678283386	0
1	7824	12367.941505570664	0
1	7826	12368.726947603957	0
1	7829	12377.464719832303	0
1	7832	12377.504409029933	0
1	7835	12385.768745536499	0
1	7838	12388.427389229596	0
1	7840	12395.545598124241	0
1	7842	12398.188918408572	0
1	7845	12399.154297602574	0
1	7847	12399.892289216917	0
1	7850	12402.518824603213	0
1	7853	12404.827358983223	0
1	7855	12408.970335998493	0
1	7858	12409.148437304256	1
1	7860	12411.867159157427	0
1	7863	12412.923674878803	0
1	7865	12424.53588348514	0
1	7867	12430.563611261266	0
1	7870	12433.805519218803	0
1	7873	12434.029679685936	0
1	7875	12434.582604039447	0
1	7878	12438.208627513273	1
1	7880	12438.4243100967	2
1	7882	12441.304462971782	3
1	7884	12447.655701572316	4
1	7886	12452.871334853919	3
1	7889	12453.204094238162	4
1	7891	12455.702958512851	5
1	7893	12459.964056598738	4
1	7896	12460.511581743772	3
1	7899	12465.075785817834	4
1	7901	12468.043300672259	3
1	7904	12469.514531548105	4
1	7906	12473.101592928504	5
1	7908	12477.060503858966	4
1	7911	12481.122458470572	5
1	7913	12484.10933266726	4
1	7916	12484.852992799801	5
1	7918	12490.277613264242	4
1	7921	12496.044016459108	3
1	7924	12499.943014731794	2
1	7927	12506.58116529354	1
1	7930	12509.481054471862	0
1	7933	12513.06350792089	0
1	7935	12522.577346492883	0
1	7937	12552.341357550441	0
1	7940	12552.807516230552	0
1	7943	12553.151047527274	0
1	7945	12553.467560654813	0
1	7948	12556.566610072792	0
1	7950	12556.640155466339	0
1	7952	12560.114417348487	0
1	7954	12563.215464918113	0
1	7957	12566.9363520518	0
1	7960	12573.667174939994	0
1	7962	12573.947449997785	0
1	7965	12574.005372966929	0
1	7968	12586.922760073337	0
1	7970	12588.692384656294	0
1	7972	12590.306994763262	0
1	7974	12591.074665609671	0
1	7977	12591.64608327348	0
1	7979	12596.506732173281	0
1	7982	12605.051388588134	0
1	7985	12608.371708181702	0
1	7987	12615.13000705473	0
1	7990	12617.139077747742	0
1	7992	12619.985078572554	0
1	7995	12626.21969670171	0
1	7998	12637.048538027443	0
1	8000	12639.591418229998	0
1	8003	12645.329756493724	1
1	8005	12647.60645167167	2
1	8007	12649.570880774337	1
1	8010	12653.651865617603	2
1	8012	12655.470029246167	3
1	8014	12659.874110596778	4
1	8016	12662.340976309907	3
1	8019	12663.235689054322	2
1	8022	12665.148180580601	1
1	8025	12666.663403719201	0
1	8028	12666.95159881579	0
1	8030	12669.268986136255	0
1	8033	12674.234363364004	0
1	8035	12675.963822176576	0
1	8037	12677.279036744243	0
1	8039	12678.45855446558	0
1	8041	12683.627915389698	0
1	8044	12685.027649650383	0
1	8047	12686.030764975523	0
1	8049	12687.014645990974	0
1	8052	12694.698997998347	0
1	8054	12695.8445260067	0
1	8056	12700.696062841592	0
1	8059	12701.934703696249	0
1	8062	12702.70152817141	0
1	8065	12704.277864394753	0
1	8067	12706.171322453254	0
1	8069	12711.32082430802	0
1	8072	12714.592964191349	0
1	8075	12716.7689323534	0
1	8078	12720.017118944547	1
1	8080	12722.829055284577	0
1	8083	12728.455133559127	0
1	8085	12729.603152988843	0
1	8088	12733.016573293721	0
1	8090	12734.536948817149	0
1	8092	12736.088516309193	0
1	8095	12737.046253009615	0
1	8097	12746.126547833177	0
1	8099	12750.102197536232	0
1	8102	12754.503337871859	0
1	8105	12757.047988491855	0
1	8107	12763.061501363228	0
1	8109	12764.754208052549	0
1	8112	12767.569984088512	0
1	8114	12774.756721746341	0
1	8116	12783.023719996574	0
1	8118	12789.6370507243	0
1	8121	12793.009705957842	0
1	8124	12794.754694162378	0
1	8126	12795.553415359128	0
1	8129	12797.535478091814	0
1	8131	12799.421557985022	0
1	8133	12802.937661583791	0
1	8135	12810.688329252116	0
1	8138	12824.718296061632	0
1	8140	12826.701826960592	0
1	8142	12833.540697508309	0
1	8145	12855.488680211957	0
1	8148	12857.17481444788	0
1	8151	12860.721348189104	0
1	8154	12860.838544614714	0
1	8157	12864.73881029813	0
1	8160	12869.835137932857	0
1	8163	12870.820987257964	0
1	8165	12874.877264055445	0
1	8167	12884.712715642895	0
1	8169	12888.430708119198	0
1	8172	12892.489637121224	0
1	8175	12895.494489842112	0
1	8177	12899.296517959228	0
1	8179	12899.850720698864	0
1	8182	12916.741737456791	0
1	8184	12917.939358495612	0
1	8186	12920.96146798637	0
1	8189	12934.342988770213	0
1	8191	12935.038703910321	0
1	8194	12938.68620530473	0
1	8197	12939.438612941715	0
1	8199	12950.38108165202	0
1	8202	12952.08246782329	0
1	8205	12954.716927192969	0
1	8208	12954.767663794618	1
1	8210	12962.353248808792	0
1	8213	12962.810144952625	0
1	8215	12966.032702627209	0
1	8218	12969.75475867714	0
1	8220	12972.708237278142	0
1	8222	12975.197744930512	0
1	8225	12976.223634850524	0
1	8228	12978.162506335845	0
1	8230	12983.413444653128	0
1	8233	12984.205847591268	1
1	8235	13001.646999176477	2
1	8237	13002.083088554127	1
1	8240	13002.277194058477	2
1	8242	13003.113575328945	3
1	8244	13008.873646428982	2
1	8247	13012.584728668483	3
1	8249	13013.722125193169	2
1	8252	13022.35051343436	1
1	8255	13026.02711480141	2
1	8257	13031.600880726455	1
1	8260	13032.56818691166	0
1	8263	13036.88193790798	0
1	8265	13046.270889143622	0
1	8267	13055.921227941598	0
1	8270	13058.439399078159	0
1	8273	13058.973636427671	0
1	8275	13067.067332018321	0
1	8277	13068.372580851899	0
1	8280	13078.987992250007	0
1	8283	13082.746979770698	0
1	8285	13082.828648043452	0
1	8288	13084.250024227964	1
1	8290	13088.379869227196	2
1	8292	13088.879806319898	1
1	8295	13092.944170526227	2
1	8297	13094.706052755577	1
1	8300	13096.092876035526	0
1	8303	13096.753090046067	1
1	8305	13103.889989420878	2
1	8307	13105.424775904914	1
1	8310	13106.038438156263	2
1	8312	13110.198630834127	3
1	8314	13111.556944074505	4
1	8316	13114.461644151685	3
1	8319	13115.826491578514	2
1	8322	13118.8366088048	1
1	8325	13119.55502954879	2
1	8327	13123.739510649464	1
1	8330	13127.05838851536	2
1	8332	13127.809354984033	1
1	8335	13128.388908036305	2
1	8337	13135.286754415536	1
1	8340	13135.329587176736	0
1	8343	13136.676974337247	0
1	8345	13149.258831033886	0
1	8347	13149.354657310336	0
1	8350	13152.008087035007	0
1	8352	13159.616346064113	0
1	8354	13162.506378651514	0
1	8357	13168.07222183445	0
1	8360	13168.245808090314	0
1	8362	13169.45318781848	0
1	8365	13169.957899042832	0
1	8367	13172.632800031082	0
1	8369	13175.924563751428	0
1	8372	13179.298737775708	0
1	8374	13180.020153587726	0
1	8376	13182.302084453492	0
1	8379	13188.962339210515	0
1	8382	13203.753484270879	0
1	8385	13205.876077704924	0
1	8387	13217.034960113326	0
1	8390	13218.39230503792	0
1	8392	13218.708161479468	0
1	8395	13218.936154942817	0
1	8398	13222.774617238819	0
1	8400	13224.81044837437	0
1	8403	13226.908697274089	0
1	8405	13227.127000413444	0
1	8407	13239.980341620029	0
1	8409	13242.42974182409	0
1	8412	13243.615061638702	0
1	8414	13247.655056256419	0
1	8416	13248.465657168403	0
1	8418	13256.309108648058	0
1	8421	13259.554617585719	0
1	8424	13260.586822120995	0
1	8427	13262.311505079058	0
1	8429	13279.808128913768	0
1	8431	13283.90009512086	0
1	8433	13285.100437940861	0
1	8436	13286.884899704602	0
1	8439	13289.285864119811	0
1	8441	13295.445899388389	0
1	8444	13301.998789224363	0
1	8447	13302.802861700579	0
1	8450	13310.122336011288	0
1	8453	13316.000556024653	1
1	8455	13330.157059145363	0
1	8458	13330.808216848116	0
1	8460	13333.357201481123	0
1	8462	13352.710153018135	0
1	8465	13355.707883805847	0
1	8467	13358.0736103706	0
1	8470	13358.96164135797	0
1	8472	13359.714457910422	0
1	8475	13361.857654034361	0
1	8478	13362.440360592228	0
1	8480	13363.517719172293	0
1	8482	13368.684160826072	0
1	8484	13383.928072712824	0
1	8486	13388.490776298154	0
1	8489	13393.359530871067	0
1	8492	13402.550656389351	0
1	8494	13402.828354333811	0
1	8496	13403.44062881767	0
1	8498	13417.628147944128	0
1	8501	13420.340421582732	0
1	8503	13425.513501702414	0
1	8506	13425.693678819499	0
1	8509	13426.778323042238	0
1	8512	13437.760911775267	0
1	8515	13438.301598138723	0
1	8518	13439.18506503318	0
1	8520	13443.415316811829	0
1	8523	13443.928511720202	0
1	8525	13446.751590089634	0
1	8528	13453.205568598815	1
1	8530	13459.079736463287	0
1	8533	13460.919381516843	1
1	8535	13461.178232240879	2
1	8537	13464.292814167644	1
1	8540	13481.070731678891	0
1	8543	13483.746733871048	1
1	8545	13485.318184760194	2
1	8547	13486.231272906058	1
1	8550	13487.502251071088	2
1	8552	13490.770136352518	3
1	8554	13492.410702741284	2
1	8557	13498.984599522571	1
1	8560	13505.19768375353	0
1	8563	13506.383130980707	1
1	8565	13511.110574882662	2
1	8567	13511.937622510028	1
1	8570	13515.768353995988	2
1	8572	13517.735774862665	3
1	8574	13518.21506886331	2
1	8577	13520.865728993393	1
1	8580	13522.14467868458	2
1	8582	13522.811731856485	1
1	8585	13522.976088243465	0
1	8588	13530.802426675089	1
1	8590	13532.006643556925	0
1	8593	13532.128864912309	1
1	8595	13534.871542444123	0
1	8598	13543.459214836125	1
1	8600	13545.820077777416	2
1	8602	13547.118495683108	1
1	8605	13547.731954805903	0
1	8608	13548.371536038463	1
1	8610	13556.260321699501	0
1	8613	13560.031360169598	0
1	8615	13560.490991401939	0
1	8617	13568.679219208533	0
1	8619	13571.013311156442	0
1	8622	13572.254723604983	0
1	8624	13577.347476278685	0
1	8627	13588.691890734165	0
1	8630	13591.666529080687	0
1	8633	13595.340573930216	1
1	8635	13599.085246800492	2
1	8637	13601.181692879362	1
1	8640	13606.106494651487	0
1	8643	13610.115025523254	1
1	8645	13612.898753179463	2
1	8647	13615.193693389169	3
1	8649	13617.956392602832	2
1	8652	13621.806571181242	1
1	8655	13622.218482154262	2
1	8657	13623.746646832475	1
1	8660	13627.943562887205	0
1	8663	13628.90218231421	0
1	8665	13630.372993290515	0
1	8668	13639.014197757461	0
1	8670	13642.940919169412	0
1	8672	13644.276509288251	0
1	8675	13656.659347482639	0
1	8678	13658.687738526359	0
1	8680	13660.940281145739	0
1	8683	13663.250107673683	0
1	8685	13663.287655213112	0
1	8688	13663.871795159482	0
1	8690	13664.986374449148	0
1	8693	13667.650779273206	1
1	8695	13668.996631328798	2
1	8697	13672.66568989617	1
1	8700	13674.551578345752	2
1	8702	13679.330802734306	3
1	8704	13680.832915653094	2
1	8707	13684.645314718777	1
1	8710	13684.739903193944	0
1	8713	13688.862943452812	1
1	8715	13693.380564810694	2
1	8717	13694.182744558511	1
1	8720	13705.19233543033	0
1	8723	13712.08894799142	1
1	8725	13722.200680474072	0
1	8728	13722.801157798445	1
1	8730	13723.607061201938	0
1	8733	13726.473321320693	0
1	8735	13728.796014102607	0
1	8737	13738.904784418255	0
1	8740	13740.308344981467	0
1	8742	13741.602322004665	0
1	8745	13747.5037483893	0
1	8747	13754.071419573585	0
1	8749	13773.889711327908	0
1	8752	13777.765874542152	0
1	8754	13777.953731657797	0
1	8756	13787.405873042038	0
1	8759	13788.997014834883	0
1	8761	13800.471980211529	0
1	8763	13805.284476663084	0
1	8766	13808.132243084488	0
1	8768	13815.661667575903	0
1	8771	13820.82643543909	0
1	8774	13825.855298895592	0
1	8776	13826.632258598275	0
1	8778	13828.417311158308	0
1	8781	13844.268222446697	0
1	8784	13845.974402510391	0
1	8787	13847.279866943527	0
1	8789	13860.814013753785	0
1	8791	13863.761384308621	0
1	8794	13867.48047423363	0
1	8797	13877.182100887605	0
1	8800	13877.863154253949	0
1	8803	13883.858415892693	0
1	8805	13887.418001316089	0
1	8807	13888.643912242561	0
1	8809	13890.244915708621	0
1	8812	13895.738625107202	0
1	8815	13896.35337162496	0
1	8817	13897.948203375398	0
1	8819	13903.704889367368	0
1	8822	13903.978222018332	0
1	8824	13915.339226089575	0
1	8827	13915.642095850127	0
1	8830	13917.086042797166	0
1	8832	13923.132275538277	0
1	8835	13925.102318272216	0
1	8837	13927.663913900028	0
1	8839	13929.789121303606	0
1	8841	13938.360789835816	0
1	8844	13939.039188470135	0
1	8846	13940.439536640916	0
1	8848	13983.857549011556	0
1	8850	13989.437728134666	0
1	8853	13992.644682310972	0
1	8855	13998.428338097812	0
1	8858	13999.38344402343	0
1	8861	14001.945891512313	0
1	8863	14009.423791331687	0
1	8866	14016.445804267992	0
1	8869	14017.799288474262	0
1	8872	14025.131815572693	0
1	8875	14032.321648358247	0
1	8878	14033.926452097115	1
1	8880	14038.427969942697	0
1	8883	14039.822803925897	0
1	8885	14044.651517301256	0
1	8887	14045.059067283794	0
1	8890	14055.339479843498	0
1	8893	14055.511971111245	0
1	8895	14057.695648005719	0
1	8897	14064.728481871823	0
1	8900	14066.208738872391	0
1	8903	14072.757880067787	0
1	8905	14074.529006508375	0
1	8908	14074.822433062287	0
1	8910	14077.236402024419	0
1	8913	14077.242022182196	0
1	8915	14077.906666636155	0
1	8918	14080.527619694777	0
1	8920	14087.856469447671	0
1	8922	14090.692481071031	0
1	8925	14095.463542498097	0
1	8928	14097.344377206013	0
1	8930	14098.341682066274	0
1	8933	14104.938087174526	0
1	8935	14106.253603892346	0
1	8937	14106.789027008678	0
1	8939	14121.908109587412	0
1	8942	14124.994331167759	0
1	8944	14132.059517069138	0
1	8947	14135.51315148381	0
1	8950	14135.518515624827	0
1	8953	14138.853369610366	1
1	8955	14141.342910140315	2
1	8957	14145.061714061624	3
1	8959	14145.185607014277	2
1	8962	14151.854119551798	1
1	8965	14160.887502300138	2
1	8967	14161.080527068289	1
1	8970	14161.204350124211	0
1	8973	14163.383001938176	0
1	8975	14166.418235465911	0
1	8978	14176.257427950744	0
1	8980	14178.337441478841	0
1	8983	14187.799328946023	1
1	8985	14189.782742525795	0
1	8988	14190.982019331313	1
1	8990	14193.637233242638	0
1	8993	14204.108460172676	1
1	8995	14205.750175082345	0
1	8998	14207.320813910784	0
1	9000	14208.756005540751	0
1	9002	14216.056682059626	0
1	9004	14218.34315335142	0
1	9007	14219.823890223679	0
1	9009	14221.135578116204	0
1	9011	14231.240090691176	0
1	9014	14233.721290212229	0
1	9016	14235.038592495216	0
1	9018	14236.707422536576	0
1	9020	14237.510305073542	0
1	9023	14240.241248854287	0
1	9026	14247.741836896848	0
1	9029	14247.906320016375	0
1	9031	14248.088412780692	0
1	9034	14253.177368576246	0
1	9036	14261.369129066363	0
1	9039	14266.390788818795	0
1	9042	14267.466831401841	0
1	9045	14274.229215230951	0
1	9047	14279.792274302987	0
1	9049	14280.404928508873	0
1	9052	14283.51045912244	0
1	9055	14287.320317492089	0
1	9058	14294.465960826907	0
1	9060	14294.991182255391	0
1	9063	14301.152501132994	0
1	9065	14312.42065744014	0
1	9067	14325.937382692524	0
1	9069	14328.558500437384	0
1	9071	14331.317620365353	0
1	9074	14334.784436715031	0
1	9076	14335.873166122568	0
1	9079	14342.213655123796	0
1	9081	14342.676393109523	0
1	9084	14345.725165292358	0
1	9087	14346.516790857696	0
1	9090	14353.919605327254	0
1	9092	14359.678521746859	0
1	9094	14373.249385080238	0
1	9097	14373.518996401039	0
1	9100	14384.562708127085	0
1	9103	14388.80092326847	1
1	9105	14394.122896027664	2
1	9107	14394.505678262531	3
1	9109	14397.106858972874	2
1	9112	14398.25592168603	1
1	9115	14398.633947071607	0
1	9118	14399.421922729523	0

