version 2
run POLICY_1-28-20191213-12:40:10-1219
attr configname POLICY_1
attr datetime 20191213-12:40:10
attr experiment POLICY_1
attr inifile omnetpp.ini
attr iterationvars ""
attr iterationvarsf ""
attr measurement ""
attr network Carrefour
attr processid 1219
attr repetition 28
attr replication #28
attr resultdir results
attr runnumber 28
attr seedset 28
param **.policy 1
param **.delta 0s
param **.tillsNumber 7
param **.capacity 0.3
param **.meanInterArrivalTime 8s
param **.meanItemsInACart 12
param **.interArrivalDistribution 0
param **.itemsInCartDistribution 0

vector 0 Carrefour.decider stats_numCustomers:vector ETV
attr "" ""
attr source numCustomers
vector 1 Carrefour.decider stats_numCustomersQueue:vector ETV
attr "" ""
attr source numCustomersQueue
0	728	1207.186808393907	6
0	730	1211.236857029874	5
0	732	1215.372611171952	4
0	734	1215.417678127857	3
0	736	1218.900283499672	2
0	738	1227.953531176212	1
0	740	1243.487158810121	2
0	743	1246.736556792379	3
0	746	1248.17350749518	2
0	748	1249.971957318617	3
0	751	1250.262472059854	4
0	754	1251.812807829969	3
0	756	1255.809229010418	2
0	758	1257.755502879574	3
0	761	1259.764104762063	4
0	764	1261.403064563837	3
0	766	1275.341549497553	4
0	769	1278.966652017036	5
0	772	1287.549619175469	4
0	774	1290.2210922923	3
0	776	1290.942215734089	2
0	778	1291.122618439523	3
0	781	1292.331100328639	2
0	783	1293.360240795233	1
0	785	1297.122931851775	2
0	788	1304.193304630704	3
0	791	1310.973994774975	2
0	793	1315.408069183845	3
0	796	1319.436050495551	2
0	798	1325.51219611398	1
0	800	1335.865675611162	2
0	803	1341.80374072183	1
0	805	1345.28885692948	2
0	808	1370.778389034561	3
0	811	1371.712517480975	4
0	814	1377.046882544509	5
0	817	1380.231833193864	4
0	819	1385.540602400849	3
0	821	1412.981505738161	4
0	824	1422.507026748905	3
0	826	1423.855638981467	2
0	828	1423.988298646453	3
0	831	1436.003251228205	2
0	833	1441.297157349459	1
0	835	1446.259172219988	2
0	838	1455.685040368614	3
0	841	1460.94673812779	2
0	843	1461.239183421142	3
0	846	1461.321501795117	4
0	849	1470.086540180177	3
0	851	1470.507972972505	4
0	854	1477.834412381893	5
0	857	1483.180990606881	6
0	860	1484.085401236575	7
0	863	1484.905403270317	6
0	865	1486.105262788706	7
0	868	1488.485348201552	8
0	870	1488.557441960217	7
0	873	1488.912902654391	6
0	875	1492.553072412188	7
0	878	1494.108973901216	6
0	880	1498.703119941863	5
0	882	1504.651668393688	6
0	885	1508.645034276431	5
0	887	1510.345257961545	6
0	890	1514.422530428019	5
0	892	1520.536148392944	4
0	894	1522.797807601227	5
0	897	1549.956768306543	6
0	900	1551.087758823359	7
0	903	1552.941063891515	8
0	905	1554.661086689796	7
0	908	1554.828899709805	8
0	910	1560.627785988623	9
0	912	1564.160323395633	8
0	915	1566.540735906331	7
0	918	1571.582383832481	6
0	920	1574.235515648135	7
0	923	1575.129998539434	6
0	925	1578.944293114812	5
0	927	1581.029733431522	6
0	930	1588.290057084178	5
0	932	1588.546837535893	4
0	934	1588.717816563091	5
0	937	1604.098232150485	4
0	939	1606.175599191064	5
0	942	1608.141815167857	6
0	945	1609.609699645995	5
0	947	1616.067573515701	4
0	949	1617.521369403614	5
0	952	1619.236094971853	4
0	954	1619.739993251425	3
0	956	1625.042740555185	4
0	959	1629.708943686485	5
0	962	1632.647624408656	6
0	965	1632.850704014038	5
0	967	1642.939310013757	6
0	970	1647.840485223819	5
0	972	1647.853295291851	6
0	975	1648.359022002818	7
0	978	1650.446876622038	8
0	980	1650.715351339388	9
0	982	1657.661311857954	10
0	984	1658.20739133915	11
0	986	1665.418462237053	10
0	989	1666.2020586901	9
0	992	1666.620427370239	10
0	994	1673.584776258155	9
0	997	1683.794406281991	8
0	1000	1686.007559034117	7
0	1003	1692.42017792351	6
0	1005	1697.729071312513	7
0	1008	1712.624590443434	8
0	1010	1713.091789942121	7
0	1013	1718.31196353954	6
0	1015	1723.157371809794	5
0	1017	1730.669865002782	6
0	1020	1741.424202370249	5
0	1022	1742.198900870058	6
0	1025	1748.217542970255	5
0	1027	1751.598392975521	4
0	1029	1751.707049528055	5
0	1032	1755.016159818731	6
0	1035	1755.85534542106	7
0	1038	1756.372731994313	8
0	1040	1757.909376321442	7
0	1043	1761.467599337707	6
0	1045	1763.803017087344	5
0	1047	1766.791584814486	4
0	1049	1769.049413356307	5
0	1052	1772.243508866942	6
0	1055	1773.469511107786	5
0	1057	1773.954938498849	4
0	1059	1776.926076838995	3
0	1061	1780.580873244652	2
0	1063	1780.803375605687	3
0	1066	1800.979823136398	4
0	1069	1803.597964893273	5
0	1072	1805.478295842416	6
0	1075	1806.171597529621	7
0	1078	1809.010828302525	6
0	1080	1813.99859794204	5
0	1082	1815.690680634408	4
0	1084	1817.439911208674	3
0	1086	1818.561540386119	4
0	1089	1824.15432823432	5
0	1092	1827.658659536786	4
0	1094	1827.77723764896	5
0	1097	1830.06039354092	6
0	1100	1830.294504953538	7
0	1103	1837.294290089124	8
0	1105	1841.799248480289	7
0	1108	1850.452017635633	6
0	1110	1860.779362869493	7
0	1113	1867.448724859801	8
0	1115	1867.507860674464	9
0	1117	1871.535737083243	8
0	1120	1871.553907292965	7
0	1123	1872.017402398919	6
0	1125	1874.925970808478	7
0	1128	1878.418292649967	6
0	1130	1887.59833947573	5
0	1132	1892.418082699753	6
0	1135	1897.404062949125	5
0	1137	1902.204016950071	6
0	1140	1918.725039788044	7
0	1143	1927.153132784468	6
0	1145	1928.436259340279	5
0	1147	1928.451473699723	6
0	1150	1928.501237004309	7
0	1153	1930.839887366411	8
0	1155	1931.668417226012	7
0	1158	1934.39026806757	6
0	1160	1935.08618010742	7
0	1163	1937.52676164112	6
0	1165	1957.704041293264	5
0	1167	1967.15690641125	6
0	1170	1967.449798414408	7
0	1173	1967.564264881258	6
0	1175	1969.501608946419	5
0	1177	1970.540920746161	6
0	1180	1975.255771978379	7
0	1183	1982.787333645866	8
0	1185	1984.12165152635	7
0	1188	1985.030030734714	6
0	1190	1992.947543824071	7
0	1193	1994.400450800447	8
0	1195	2000.605682730807	9
0	1197	2002.811007478784	8
0	1200	2003.264035394036	7
0	1203	2003.528282090901	8
0	1205	2005.122545648107	9
0	1207	2009.28702173669	8
0	1210	2013.219250278933	9
0	1212	2016.132053457824	8
0	1215	2016.493491789836	9
0	1217	2018.159954756803	10
0	1219	2018.225941298136	11
0	1221	2019.331692248186	10
0	1224	2019.996172414611	9
0	1227	2020.264163898761	8
0	1230	2029.145020645898	7
0	1233	2034.804986040632	8
0	1235	2049.270846837519	7
0	1238	2054.110141216733	6
0	1240	2054.235751359199	5
0	1242	2054.48519140076	4
0	1244	2057.649995474823	3
0	1246	2057.666026387356	2
0	1248	2060.382476115279	1
0	1250	2061.393221582572	2
0	1253	2062.017604419235	3
0	1256	2063.480740915728	2
0	1258	2068.307265274365	3
0	1261	2076.028124488582	4
0	1264	2085.049952046954	5
0	1267	2087.464822757468	4
0	1269	2088.260194810839	3
0	1271	2094.556938318481	4
0	1274	2099.200073648963	3
0	1276	2100.682483953969	2
0	1278	2124.219239907371	3
0	1281	2136.186367413295	4
0	1284	2137.361004120741	5
0	1287	2143.987339627746	4
0	1289	2145.64565211455	5
0	1292	2148.132024444263	4
0	1294	2152.266788814992	5
0	1297	2156.590705301887	4
0	1299	2158.298330000737	5
0	1302	2159.884401986769	4
0	1304	2169.615672858054	3
0	1306	2170.00062582961	4
0	1309	2189.237396655485	3
0	1311	2192.774242807327	2
0	1313	2198.769609008054	1
0	1315	2214.394834485362	2
0	1318	2224.29866923671	3
0	1321	2245.648643043321	2
0	1323	2246.056761342036	3
0	1326	2248.796748621226	4
0	1329	2251.617694023852	5
0	1332	2254.017958315638	4
0	1334	2255.565695450652	3
0	1336	2267.031809747515	2
0	1338	2272.051901597388	1
0	1340	2278.404963052875	2
0	1343	2279.432166440112	3
0	1346	2280.045587727741	2
0	1348	2291.31737957373	3
0	1351	2292.632372959565	4
0	1354	2295.620546809933	3
0	1356	2299.537418440274	2
0	1358	2303.996632035667	1
0	1360	2308.795280191864	2
0	1363	2309.297634815994	1
0	1365	2317.254063310444	2
0	1368	2330.014733394391	3
0	1371	2339.182289195701	4
0	1374	2341.869779553979	5
0	1377	2342.438429121909	4
0	1379	2349.172436790749	3
0	1381	2354.621734037579	2
0	1383	2356.188056944534	1
0	1385	2376.892658804948	0
0	1387	2379.60363201835	1
0	1390	2385.397793241134	2
0	1393	2392.608528419083	1
0	1395	2403.964394859534	2
0	1398	2407.84900983957	3
0	1401	2408.63067772665	4
0	1404	2411.372959788676	5
0	1407	2420.993636253469	4
0	1409	2429.913164923784	5
0	1412	2430.053820248593	4
0	1414	2433.567695276814	5
0	1417	2435.488194133699	4
0	1419	2441.730896471369	3
0	1421	2442.984586850278	2
0	1423	2449.966802783638	3
0	1426	2454.451483000745	2
0	1428	2457.944445796385	1
0	1430	2459.102141529774	0
0	1432	2463.877776578257	1
0	1435	2467.796225885415	2
0	1438	2475.697414687748	3
0	1441	2481.014531908034	2
0	1443	2482.909563915112	3
0	1446	2484.716141107032	2
0	1448	2487.750054675723	3
0	1451	2498.787241543652	2
0	1453	2504.668089912231	3
0	1456	2505.024260656319	4
0	1459	2509.670978904405	3
0	1461	2511.333182041009	4
0	1464	2521.717520084632	3
0	1466	2529.937187582017	2
0	1468	2533.04988898142	3
0	1471	2542.139191061025	4
0	1474	2545.715655283525	3
0	1476	2550.005226245224	4
0	1479	2553.365412870143	5
0	1482	2554.593418274933	4
0	1484	2560.341313966388	5
0	1487	2563.077723332414	6
0	1490	2563.60146406281	5
0	1492	2563.625470087586	4
0	1494	2563.782184107813	3
0	1496	2566.22516341354	4
0	1499	2568.347102232453	5
0	1502	2574.906844442049	4
0	1504	2590.297667268189	5
0	1507	2592.686208343379	4
0	1509	2606.056921244088	3
0	1511	2607.477414696571	2
0	1513	2618.612049651757	3
0	1516	2630.876249109797	4
0	1519	2634.526575970143	5
0	1522	2641.855870868118	6
0	1525	2648.817422535402	5
0	1527	2654.692117997617	4
0	1529	2657.317244965527	5
0	1532	2676.461884051479	4
0	1534	2677.293252336422	3
0	1536	2682.016916297528	4
0	1539	2686.531058664276	3
0	1541	2694.517588580477	4
0	1544	2700.808517307916	5
0	1547	2701.052820324888	6
0	1550	2715.711854643791	5
0	1552	2718.060675226161	6
0	1555	2720.74187156004	5
0	1557	2722.502813456762	6
0	1560	2723.360903817336	7
0	1563	2734.650268666326	8
0	1565	2735.449179653953	7
0	1568	2736.764274030102	6
0	1570	2748.111638089541	7
0	1573	2748.433825752852	6
0	1575	2752.438676082817	5
0	1577	2759.719619625942	4
0	1579	2764.046469275779	5
0	1582	2769.308828032514	4
0	1584	2769.335101534856	5
0	1587	2770.957458614983	6
0	1590	2771.883702017822	7
0	1593	2773.272746075209	8
0	1595	2776.172270677658	9
0	1597	2777.413233692815	8
0	1600	2778.863070167689	9
0	1602	2779.645617999898	8
0	1605	2781.755797481389	7
0	1608	2782.577285054462	6
0	1610	2791.922049848809	7
0	1613	2793.104561043164	8
0	1615	2796.672617001383	7
0	1618	2797.264049387133	6
0	1620	2797.811454557984	5
0	1622	2798.609297740719	6
0	1625	2799.965036998095	7
0	1628	2800.06761622044	6
0	1630	2804.870898467086	5
0	1632	2811.177209283057	6
0	1635	2814.0906075184	7
0	1638	2823.726759890677	6
0	1640	2833.525992383038	5
0	1642	2841.482053427845	6
0	1645	2842.452854643116	5
0	1647	2843.366936134249	4
0	1649	2845.610732473634	3
0	1651	2851.315614391838	2
0	1653	2854.928705854377	3
0	1656	2862.968095611911	4
0	1659	2866.673179607074	5
0	1662	2867.756149439597	6
0	1665	2868.612904643	7
0	1668	2870.952313351903	8
0	1670	2873.142042749962	9
0	1672	2876.001909374241	10
0	1674	2876.209705596207	9
0	1677	2876.232946390711	8
0	1680	2879.855668612693	9
0	1682	2880.276564639892	8
0	1685	2880.830868181696	9
0	1687	2881.32652268456	10
0	1689	2881.601581621357	11
0	1691	2883.855242634243	12
0	1693	2890.008271064221	13
0	1695	2890.594427445376	12
0	1698	2892.276018505907	13
0	1700	2892.819632323407	14
0	1702	2895.797077823687	15
0	1704	2900.888050965971	14
0	1707	2904.49168128896	13
0	1710	2905.763457377539	14
0	1712	2906.654089776466	13
0	1715	2909.730968278336	12
0	1718	2911.896847439403	13
0	1720	2915.336498703127	12
0	1723	2915.62798467979	13
0	1725	2918.700370718824	12
0	1728	2918.974055536438	13
0	1730	2926.323911340162	14
0	1732	2928.605054458854	13
0	1735	2931.967944176903	12
0	1738	2932.904788910578	11
0	1741	2932.935263621548	10
0	1744	2934.384397424304	9
0	1747	2939.001722199899	10
0	1749	2939.938186429433	9
0	1752	2940.513453388234	8
0	1755	2941.403179733279	7
0	1758	2948.332731145075	8
0	1760	2949.935855591756	7
0	1763	2952.241173364272	8
0	1765	2956.223546142572	7
0	1768	2957.452632913244	8
0	1770	2961.939565871754	9
0	1772	2966.132188492184	10
0	1774	2966.871404310461	9
0	1777	2972.946739676291	8
0	1780	2974.320361137219	7
0	1783	2977.0557242302	8
0	1785	2979.406715502865	7
0	1788	2981.199845307771	6
0	1790	2981.785725277465	5
0	1792	2982.228914983048	6
0	1795	2984.292695859767	7
0	1798	2989.711617060995	6
0	1800	2992.620865604291	5
0	1802	2994.396028175141	4
0	1804	2999.718938548334	5
0	1807	3002.816103123081	6
0	1810	3007.407898824265	5
0	1812	3010.521240353189	4
0	1814	3011.707581738064	3
0	1816	3019.746594774614	2
0	1818	3022.476509132307	3
0	1821	3030.578356354492	4
0	1824	3035.931164819972	3
0	1826	3041.601346200522	4
0	1829	3043.269870244963	3
0	1831	3050.418675694508	4
0	1834	3056.668780864511	3
0	1836	3062.237581991789	2
0	1838	3065.524229238367	3
0	1841	3067.20078011069	4
0	1844	3072.951391656468	5
0	1847	3074.190230835081	4
0	1849	3075.783112537686	3
0	1851	3083.454583952109	4
0	1854	3086.685029865843	5
0	1857	3089.999015611121	6
0	1860	3090.70261982645	7
0	1863	3096.861007355379	6
0	1865	3097.228085865905	7
0	1868	3098.279837645154	6
0	1870	3098.400178802038	7
0	1873	3098.44025355415	6
0	1875	3098.875580874785	7
0	1878	3099.673900944954	6
0	1880	3102.195789436635	7
0	1883	3105.531370277203	6
0	1885	3109.045744438142	5
0	1887	3117.965966740857	6
0	1890	3121.541469612426	7
0	1893	3122.487137547654	8
0	1895	3125.418709120411	7
0	1898	3141.159440384749	6
0	1900	3143.67092024868	7
0	1903	3145.008475104858	6
0	1905	3145.324010204599	7
0	1908	3146.016697248526	6
0	1910	3150.291624264443	7
0	1913	3155.253059179677	6
0	1915	3156.39554585912	7
0	1918	3161.458024298925	8
0	1920	3161.816109379002	7
0	1923	3162.220601772348	6
0	1925	3164.648356271249	5
0	1927	3166.610142854122	6
0	1930	3168.110511651199	7
0	1933	3170.810962578829	6
0	1935	3178.865230468421	5
0	1937	3179.314190616569	4
0	1939	3184.97700539472	3
0	1941	3187.363342856437	4
0	1944	3205.207824586422	5
0	1947	3206.027797126762	4
0	1949	3224.409198349416	3
0	1951	3229.695098228901	2
0	1953	3235.833283707121	3
0	1956	3238.793161091082	4
0	1959	3239.177106560772	5
0	1962	3240.889089340836	6
0	1965	3241.223973516819	7
0	1968	3243.509388032058	8
0	1970	3256.651432232244	7
0	1973	3263.371306638759	6
0	1975	3264.926001896204	5
0	1977	3269.775960699548	4
0	1979	3274.841848416961	3
0	1981	3275.367611916488	4
0	1984	3289.522918701156	5
0	1987	3294.561228010002	6
0	1990	3294.745714880235	7
0	1993	3295.229120490109	8
0	1995	3302.394545721643	9
0	1997	3303.090427624077	8
0	2000	3305.029604249034	9
0	2002	3305.706964486986	8
0	2005	3307.171469965187	7
0	2008	3309.083436254423	6
0	2010	3312.3392326185	5
0	2012	3316.554834389654	4
0	2014	3321.368078751503	5
0	2017	3321.423057855603	4
0	2019	3326.773913040995	5
0	2022	3328.35034917427	4
0	2024	3328.575453714631	3
0	2026	3330.652255602995	2
0	2028	3338.43696671122	3
0	2031	3339.166516378558	4
0	2034	3344.033953856325	5
0	2037	3347.637970933961	4
0	2039	3352.70549078796	3
0	2041	3353.545470936495	2
0	2043	3358.909795265623	1
0	2045	3358.911373442973	2
0	2048	3376.956221613902	3
0	2051	3379.917419743468	4
0	2054	3385.303440473036	5
0	2057	3388.043545887733	6
0	2060	3389.344848079899	5
0	2062	3390.237026875628	4
0	2064	3398.91985055059	5
0	2067	3409.453267053344	6
0	2070	3412.382173120594	5
0	2072	3412.93231665578	4
0	2074	3417.687488346979	3
0	2076	3421.108638681282	4
0	2079	3425.438648553221	3
0	2081	3438.116736728467	4
0	2084	3438.219382914137	5
0	2087	3446.118066446938	6
0	2090	3449.274303974074	5
0	2092	3450.196543898312	4
0	2094	3451.576663833676	5
0	2097	3451.856342967076	6
0	2100	3453.477187743833	5
0	2102	3460.556009537002	6
0	2105	3464.658471571522	7
0	2108	3468.448589374237	8
0	2110	3469.984603298994	7
0	2113	3473.088933276635	8
0	2115	3478.89395070023	9
0	2117	3487.947549250577	8
0	2120	3490.363696249781	9
0	2122	3491.528349022724	10
0	2124	3491.979473356824	11
0	2126	3496.078202871369	12
0	2128	3498.446177161371	13
0	2130	3501.955704607846	12
0	2133	3506.792063176536	13
0	2135	3507.442388110355	12
0	2138	3509.183845326627	11
0	2141	3510.026077356939	10
0	2144	3510.483194397162	9
0	2147	3514.646970796338	8
0	2150	3515.194801635793	7
0	2153	3515.466875739122	8
0	2155	3520.590360827441	9
0	2157	3524.723992397918	10
0	2159	3527.561264059627	9
0	2162	3527.616050575927	10
0	2164	3528.7658290069	11
0	2166	3532.556766832393	12
0	2168	3535.84842589168	11
0	2171	3546.335537837458	10
0	2174	3551.202171786068	11
0	2176	3551.326591062971	10
0	2179	3559.592710367223	9
0	2182	3559.841936737241	10
0	2184	3560.686597413014	9
0	2187	3564.489794763951	8
0	2190	3573.401722263589	9
0	2192	3574.480125200724	10
0	2194	3583.777984412609	11
0	2196	3587.936055835685	10
0	2199	3595.184080544452	11
0	2201	3595.50359448356	12
0	2203	3598.29819372066	13
0	2205	3607.701263700611	12
0	2208	3609.288910974954	13
0	2210	3611.60710353015	14
0	2212	3617.385094774674	15
0	2214	3619.577529984628	14
0	2217	3619.830327275335	13
0	2220	3619.96151421236	12
0	2223	3620.375008071279	11
0	2226	3622.721390190984	10
0	2229	3626.632894984608	9
0	2232	3627.220063983792	10
0	2234	3636.724794314471	9
0	2237	3642.174943544485	8
0	2240	3642.758801357498	9
0	2242	3645.228960768906	8
0	2245	3651.930287945761	7
0	2248	3652.957558076634	6
0	2250	3657.945874766356	7
0	2253	3658.145950578979	6
0	2255	3662.271659465413	5
0	2257	3663.135967623387	6
0	2260	3665.946741836587	5
0	2262	3666.980396190953	4
0	2264	3682.97715705812	5
0	2267	3687.321959844868	6
0	2270	3688.215435407144	5
0	2272	3691.159671364258	4
0	2274	3696.827642136243	5
0	2277	3698.131589688051	6
0	2280	3699.986776205353	5
0	2282	3723.795193444959	4
0	2284	3727.355242784524	3
0	2286	3727.973462366866	4
0	2289	3730.572479981217	5
0	2292	3752.838139297622	6
0	2295	3753.524002817701	7
0	2298	3754.451530855147	6
0	2300	3755.982518058164	5
0	2302	3756.586297324638	4
0	2304	3761.479422896223	5
0	2307	3765.078288000016	6
0	2310	3765.405911535961	7
0	2313	3776.455435692258	6
0	2315	3788.104689841541	7
0	2318	3797.410381760208	6
0	2320	3800.001520689524	5
0	2322	3802.378244225392	6
0	2325	3806.744784925108	5
0	2327	3807.680619366786	6
0	2330	3811.383647865186	5
0	2332	3812.355471790066	4
0	2334	3826.15563433935	3
0	2336	3831.287133637795	4
0	2339	3833.100094145025	5
0	2342	3833.68260987776	4
0	2344	3834.262496097899	5
0	2347	3835.484736852456	6
0	2350	3837.87016215064	5
0	2352	3842.734870802186	6
0	2355	3842.901035873715	7
0	2358	3844.858508297664	8
0	2360	3845.503541486252	9
0	2362	3847.593696833929	10
0	2364	3849.318865354928	9
0	2367	3851.104910940751	10
0	2369	3851.18353137246	9
0	2372	3861.709025879348	10
0	2374	3862.454099766972	9
0	2377	3869.241056524233	8
0	2380	3879.325653319381	7
0	2383	3880.125066324677	8
0	2385	3882.321945373423	9
0	2387	3884.148968040133	8
0	2390	3885.500155806307	9
0	2392	3886.389944878264	8
0	2395	3893.139449554988	9
0	2397	3894.345019734312	10
0	2399	3895.548860547836	9
0	2402	3897.256604663509	8
0	2405	3899.938453513136	7
0	2408	3904.011436598595	6
0	2410	3905.366176084035	5
0	2412	3906.529377972464	6
0	2415	3909.662897611702	7
0	2418	3917.06403806988	6
0	2420	3917.352979347396	7
0	2423	3920.946553496305	8
0	2425	3921.150031382915	9
0	2427	3923.352729631682	10
0	2429	3927.622463554083	11
0	2431	3927.787795354491	10
0	2434	3928.347119786269	9
0	2437	3930.26112324772	8
0	2440	3931.862701984429	9
0	2442	3934.24554331711	8
0	2445	3942.52909340057	9
0	2447	3943.260332562889	8
0	2450	3943.97826822106	9
0	2452	3944.273500754962	10
0	2454	3954.568727306257	9
0	2457	3955.755345494073	10
0	2459	3956.846304485132	9
0	2462	3959.039883281502	10
0	2464	3960.469081737197	9
0	2467	3961.37164878015	8
0	2470	3963.571844048242	7
0	2473	3969.674494052839	8
0	2475	3972.580684793405	9
0	2477	3974.688548028655	8
0	2480	3977.596361916052	7
0	2483	3980.679937994833	6
0	2485	3981.15348258514	5
0	2487	3982.518900151945	4
0	2489	3991.626777316408	3
0	2491	4002.030693541465	2
0	2493	4008.225467066688	3
0	2496	4021.876402700704	4
0	2499	4022.862415793354	3
0	2501	4025.951958630562	4
0	2504	4026.830768802033	3
0	2506	4027.470774869634	4
0	2509	4028.159102701167	3
0	2511	4031.26507475023	2
0	2513	4040.146495091247	3
0	2516	4046.959592041509	4
0	2519	4049.156927961189	3
0	2521	4049.450491714525	2
0	2523	4058.184301900163	3
0	2526	4059.028597456288	4
0	2529	4065.94140084298	3
0	2531	4068.083933142113	4
0	2534	4068.843975857522	3
0	2536	4075.147454983698	4
0	2539	4075.339435843703	5
0	2542	4077.820271372895	4
0	2544	4088.302964602052	3
0	2546	4089.044236884263	4
0	2549	4089.522826584203	3
0	2551	4090.241008869531	2
0	2553	4093.542952027711	3
0	2556	4098.008242090403	4
0	2559	4106.101619235297	3
0	2561	4114.969078369464	2
0	2563	4126.980472810153	1
0	2565	4129.663819664576	2
0	2568	4129.831019151796	1
0	2570	4133.53537278268	2
0	2573	4133.920642804888	1
0	2575	4144.982343039818	2
0	2578	4161.750033352173	1
0	2580	4167.990052650973	0
0	2582	4170.145136973526	1
0	2585	4177.022015640089	2
0	2588	4178.56027085635	1
0	2590	4200.222194741527	2
0	2593	4206.248662488941	3
0	2596	4206.591036126469	4
0	2599	4209.105928528924	5
0	2602	4209.504063868127	6
0	2605	4211.166587533196	7
0	2608	4213.509987325622	6
0	2610	4223.197469715096	5
0	2612	4223.696110302469	4
0	2614	4227.553995747579	5
0	2617	4227.799254220576	6
0	2620	4228.739626544134	5
0	2622	4232.051560668677	4
0	2624	4241.737488404266	3
0	2626	4242.874024565572	4
0	2629	4245.106731584723	3
0	2631	4253.627026118429	4
0	2634	4257.613745672036	5
0	2637	4263.564845417272	6
0	2640	4266.493176166188	5
0	2642	4268.161094510005	4
0	2644	4271.543788193585	5
0	2647	4272.239058431156	4
0	2649	4275.504258121256	5
0	2652	4282.457115232333	4
0	2654	4283.369047816266	3
0	2656	4304.395034281828	4
0	2659	4309.824163202585	5
0	2662	4312.445688061169	6
0	2665	4312.521758780131	7
0	2668	4321.976635287273	6
0	2670	4322.486462913923	5
0	2672	4324.723193975375	6
0	2675	4329.945635693279	7
0	2678	4335.818692854161	8
0	2680	4337.231633582236	9
0	2682	4346.877173587629	8
0	2685	4347.531460538762	7
0	2688	4353.183499481364	8
0	2690	4355.735199271832	9
0	2692	4356.354917081963	8
0	2695	4358.686819465775	7
0	2698	4365.193575395643	8
0	2700	4375.970370965355	7
0	2703	4376.732514503679	8
0	2705	4376.795641051683	7
0	2708	4379.278255881929	6
0	2710	4381.084679989273	5
0	2712	4382.638088904187	6
0	2715	4386.039834692195	7
0	2718	4387.35395129098	6
0	2720	4391.628949892962	7
0	2723	4394.289520048076	6
0	2725	4395.441491169698	5
0	2727	4401.993824973485	4
0	2729	4410.15243922179	5
0	2732	4414.108366784667	4
0	2734	4414.21600824102	5
0	2737	4414.330879096693	4
0	2739	4420.960156209157	3
0	2741	4423.069023499921	2
0	2743	4430.108440763993	3
0	2746	4442.104718467726	4
0	2749	4443.312386490901	5
0	2752	4444.005778667552	6
0	2755	4444.275336625606	5
0	2757	4445.745074707275	4
0	2759	4446.994844189045	3
0	2761	4453.597943362032	2
0	2763	4460.495911512182	3
0	2766	4462.017649497784	2
0	2768	4463.639552259563	3
0	2771	4466.757942781249	2
0	2773	4467.374202517437	1
0	2775	4469.437122606865	2
0	2778	4472.250300249742	3
0	2781	4472.309470915627	2
0	2783	4480.863540708182	3
0	2786	4490.076972656837	2
0	2788	4496.006302214055	3
0	2791	4519.646805528738	4
0	2794	4521.266624742235	3
0	2796	4524.901789736374	4
0	2799	4531.548137689415	5
0	2802	4534.289317621785	6
0	2805	4536.111724541895	5
0	2807	4537.073324121886	6
0	2810	4537.941498533717	7
0	2813	4540.900013772845	6
0	2815	4544.673676145142	5
0	2817	4550.26853716618	4
0	2819	4554.688983205063	5
0	2822	4557.678633393095	4
0	2824	4562.064599169497	3
0	2826	4567.400680870271	4
0	2829	4569.583069874657	5
0	2832	4571.786160446193	4
0	2834	4578.267176530957	3
0	2836	4580.465658250321	4
0	2839	4581.436779204087	3
0	2841	4585.111551421516	2
0	2843	4586.171112236839	1
0	2845	4589.295813099218	2
0	2848	4594.656384467328	1
0	2850	4597.521506001473	0
0	2852	4600.906952629514	1
0	2855	4614.337938768789	2
0	2858	4622.315781268919	1
0	2860	4633.771224203565	2
0	2863	4649.101251518954	3
0	2866	4651.109145278685	4
0	2869	4651.927301717263	5
0	2872	4657.025488870765	6
0	2875	4676.363297903157	5
0	2877	4677.833127172292	6
0	2880	4683.481847428702	7
0	2883	4687.051640331146	8
0	2885	4689.199507748794	9
0	2887	4693.778033154954	10
0	2889	4695.74310522833	9
0	2892	4697.120437348169	10
0	2894	4706.914618837539	9
0	2897	4715.507508193494	10
0	2899	4721.396010927508	11
0	2901	4724.289466301897	12
0	2903	4724.427639709274	13
0	2905	4725.464939064432	14
0	2907	4728.702013111471	15
0	2909	4730.729610168088	16
0	2911	4730.751976667596	15
0	2914	4736.241144407786	14
0	2917	4741.198090247026	13
0	2920	4744.532802630918	12
0	2923	4746.274771753785	13
0	2925	4747.004519286068	14
0	2927	4748.622515884193	13
0	2930	4749.400847180403	14
0	2932	4756.498184215372	13
0	2935	4756.547219295157	12
0	2938	4757.323032599432	13
0	2940	4759.127117033297	12
0	2943	4762.184874258591	11
0	2946	4766.670075683569	10
0	2949	4768.028973900299	11
0	2951	4771.200030526183	10
0	2954	4779.498802660453	11
0	2956	4779.94368867012	12
0	2958	4782.349280216134	11
0	2961	4789.47539075192	10
0	2964	4790.248234836374	9
0	2967	4794.311188813525	10
0	2969	4794.513195418259	11
0	2971	4802.621038658591	10
0	2974	4802.719777715452	9
0	2977	4803.044456001872	10
0	2979	4807.411854452001	9
0	2982	4808.613449155257	8
0	2985	4810.555469649529	9
0	2987	4810.749734600656	8
0	2990	4813.925960440358	9
0	2992	4815.368730826151	10
0	2994	4820.412186519531	9
0	2997	4825.945464644973	8
0	3000	4827.070730025445	7
0	3003	4827.076467722941	6
0	3005	4832.061560478954	7
0	3008	4840.07605262071	8
0	3010	4840.47239626858	7
0	3013	4850.578129943549	8
0	3015	4853.913727742048	7
0	3018	4855.702397005163	8
0	3020	4859.202347228074	9
0	3022	4863.740274801134	10
0	3024	4864.825892027589	9
0	3027	4869.788057204278	10
0	3029	4870.853528758538	9
0	3032	4871.333558462256	10
0	3034	4877.172898258411	11
0	3036	4880.440752180825	12
0	3038	4881.853523712712	11
0	3041	4886.797449695681	12
0	3043	4887.461996018914	11
0	3046	4889.205007576109	12
0	3048	4894.837119925642	11
0	3051	4894.961064874881	10
0	3054	4899.014779353493	11
0	3056	4899.923854693712	10
0	3059	4903.841668211372	11
0	3061	4909.44191891071	10
0	3064	4915.616806729701	9
0	3067	4918.091920359511	10
0	3069	4918.692012806644	9
0	3072	4923.022919373505	10
0	3074	4923.890199675278	11
0	3076	4933.108196622525	10
0	3079	4934.602548943356	9
0	3082	4935.847978195979	8
0	3085	4935.908038978717	9
0	3087	4939.445285733807	8
0	3090	4944.866208556989	7
0	3093	4945.218046161967	8
0	3095	4946.019639481489	7
0	3098	4949.459347766807	8
0	3100	4963.106330503086	7
0	3103	4963.702724321594	6
0	3105	4972.476235243148	5
0	3107	4978.475523362178	4
0	3109	4980.633179914187	5
0	3112	4983.620150935592	6
0	3115	4990.197597529586	5
0	3117	4994.620178950784	4
0	3119	4999.38119917177	5
0	3122	5001.286997495638	4
0	3124	5007.559450859366	3
0	3126	5007.934611410321	4
0	3129	5018.799694460543	3
0	3131	5022.051680637963	2
0	3133	5032.129194580553	3
0	3136	5039.892341589732	4
0	3139	5046.545576616971	5
0	3142	5049.961828921808	4
0	3144	5050.167506051214	5
0	3147	5053.54959891583	6
0	3150	5064.089393422862	5
0	3152	5068.784016794421	6
0	3155	5070.160809545245	7
0	3158	5070.928280920585	6
0	3160	5073.530427791269	7
0	3163	5074.668770505415	6
0	3165	5074.768478900455	5
0	3167	5080.834461702792	4
0	3169	5085.770502100546	5
0	3172	5094.408540341741	4
0	3174	5100.099833136534	3
0	3176	5111.824753886497	2
0	3178	5132.486124410189	1
0	3180	5140.615019111524	2
0	3183	5145.224037844129	3
0	3186	5160.728559376835	2
0	3188	5162.021384107757	1
0	3190	5163.657759001998	2
0	3193	5171.078885060021	1
0	3195	5171.455986616823	2
0	3198	5173.158137529175	3
0	3201	5176.924792419412	4
0	3204	5178.023676910922	5
0	3207	5179.478340734986	4
0	3209	5180.384433731491	5
0	3212	5190.914127880373	6
0	3215	5192.820375222911	7
0	3218	5194.176521030343	6
0	3220	5201.653908624872	5
0	3222	5204.724084994169	4
0	3224	5206.549644594888	5
0	3227	5207.091592167414	6
0	3230	5209.995133273727	5
0	3232	5223.439795483191	4
0	3234	5229.069811701423	3
0	3236	5229.478072597296	2
0	3238	5237.679197204696	1
0	3240	5239.47027134496	2
0	3243	5254.439859319468	3
0	3246	5258.602422905529	4
0	3249	5260.863661481334	5
0	3252	5261.805928136106	4
0	3254	5276.939020672039	3
0	3256	5277.199269737016	4
0	3259	5279.085661582582	3
0	3261	5280.053069424905	2
0	3263	5282.679684586053	3
0	3266	5289.937470357041	4
0	3269	5293.073970500282	5
0	3272	5297.710403212011	6
0	3275	5301.315431407113	5
0	3277	5304.816661545547	4
0	3279	5308.869165314453	3
0	3281	5309.027063095904	4
0	3284	5309.137493516984	5
0	3287	5310.790897302884	4
0	3289	5316.210336914216	3
0	3291	5316.709834171975	4
0	3294	5317.28114946731	5
0	3297	5321.643380842449	4
0	3299	5324.497631668834	3
0	3301	5325.835162825531	2
0	3303	5327.032570125605	3
0	3306	5334.215472817565	4
0	3309	5339.327288131677	3
0	3311	5340.40103269715	4
0	3314	5342.346102427679	3
0	3316	5342.477209994294	2
0	3318	5342.750631429728	3
0	3321	5343.772871684317	4
0	3324	5350.755691138831	5
0	3327	5363.334311475263	6
0	3330	5363.342816132534	7
0	3333	5367.039940871743	8
0	3335	5370.258664416777	7
0	3338	5374.963600391344	6
0	3340	5380.516038768805	5
0	3342	5383.360919546444	6
0	3345	5386.486756667909	5
0	3347	5400.482232584277	4
0	3349	5402.060705218083	5
0	3352	5406.120312807301	4
0	3354	5410.922187337035	5
0	3357	5413.653820914662	4
0	3359	5419.741253304192	3
0	3361	5419.757035461023	4
0	3364	5427.449310023693	5
0	3367	5431.868720286624	4
0	3369	5438.349859958161	3
0	3371	5443.441364432133	2
0	3373	5446.338157342547	3
0	3376	5448.490907115655	2
0	3378	5465.14943584166	3
0	3381	5465.281036506371	4
0	3384	5469.253754564385	3
0	3386	5469.541345404903	4
0	3389	5478.779796868829	3
0	3391	5479.994805134475	2
0	3393	5481.781526274502	1
0	3395	5486.721799180761	2
0	3398	5496.187205328398	3
0	3401	5496.697130779575	4
0	3404	5497.533693812298	5
0	3407	5499.139398254936	4
0	3409	5505.745766422742	3
0	3411	5506.643511535905	2
0	3413	5512.420898758922	3
0	3416	5513.818590960629	2
0	3418	5515.846782587547	3
0	3421	5517.842998225688	4
0	3424	5521.914238482432	3
0	3426	5523.474732433018	2
0	3428	5523.784851648401	3
0	3431	5528.308636127804	2
0	3433	5530.859742500192	3
0	3436	5535.88185484337	4
0	3439	5539.62303683254	5
0	3442	5539.72538983937	4
0	3444	5542.120948801543	5
0	3447	5543.237310419731	4
0	3449	5545.647651748734	5
0	3452	5547.414163977767	6
0	3455	5559.12940482382	7
0	3458	5563.049499027467	6
0	3460	5564.467102121285	7
0	3463	5564.952833996167	8
0	3465	5567.428760539177	9
0	3467	5576.937842658098	10
0	3469	5578.628996645464	9
0	3472	5578.711550199472	10
0	3474	5587.426206133306	11
0	3476	5588.223951225854	12
0	3478	5598.505812010547	13
0	3480	5598.530495033574	14
0	3482	5603.876589569163	15
0	3484	5603.955384945371	16
0	3486	5604.102604421872	15
0	3489	5604.626772048655	16
0	3491	5610.661452075746	17
0	3493	5612.978758078602	16
0	3496	5621.435078134694	15
0	3499	5623.195438083354	16
0	3501	5625.294080931715	15
0	3504	5625.985718286771	16
0	3506	5626.124673638877	15
0	3509	5630.493073395383	14
0	3512	5634.048062895106	13
0	3515	5636.846393262328	12
0	3518	5640.034393300838	11
0	3521	5644.836861639219	12
0	3523	5652.927602522836	11
0	3526	5656.216361266092	10
0	3529	5656.850486132741	11
0	3531	5657.177257463673	12
0	3533	5660.307534233267	11
0	3536	5661.501540669917	12
0	3538	5664.773563645048	13
0	3540	5665.379202512225	14
0	3542	5666.142521126983	15
0	3544	5666.690944716927	14
0	3547	5680.272556583265	13
0	3550	5681.468959299631	12
0	3553	5682.05711066672	11
0	3556	5687.563617238774	10
0	3559	5692.674050880096	11
0	3561	5696.373036713309	10
0	3564	5703.313817337854	11
0	3566	5704.151219165014	12
0	3568	5704.322599425428	13
0	3570	5704.994435320709	12
0	3573	5705.02059184508	11
0	3576	5714.268498160005	10
0	3579	5714.839532023803	9
0	3582	5720.507767129714	8
0	3585	5720.994900864114	9
0	3587	5726.202156895159	8
0	3590	5730.366353637079	7
0	3593	5730.895823522823	6
0	3595	5740.059340155206	5
0	3597	5740.687535173721	6
0	3600	5741.553950139052	7
0	3603	5741.893197601741	6
0	3605	5742.375018364521	7
0	3608	5742.809156323214	6
0	3610	5750.981417599905	7
0	3613	5753.21781970124	8
0	3615	5753.80948325338	7
0	3618	5756.839803477488	6
0	3620	5757.185300150915	7
0	3623	5758.012909813802	6
0	3625	5759.054669589039	5
0	3627	5769.97782712855	6
0	3630	5771.209859907553	5
0	3632	5771.717165664115	4
0	3634	5772.014080917978	3
0	3636	5773.085569704713	2
0	3638	5785.967875948493	3
0	3641	5789.675916933428	2
0	3643	5796.506595111545	3
0	3646	5801.703190724026	4
0	3649	5804.458678663945	5
0	3652	5811.427857197867	6
0	3655	5812.666579605574	7
0	3658	5818.686982246735	8
0	3660	5822.404488693394	9
0	3662	5825.863736635993	8
0	3665	5837.382841706393	7
0	3668	5840.128926535528	6
0	3670	5842.594846011056	7
0	3673	5845.819503830393	8
0	3675	5846.023054580372	7
0	3678	5847.883456858951	8
0	3680	5867.863872569139	7
0	3683	5872.765634004349	8
0	3685	5876.158351948893	7
0	3688	5878.635524669112	6
0	3690	5878.707269586854	7
0	3693	5883.628786149563	8
0	3695	5884.491842748516	9
0	3697	5888.871077255733	10
0	3699	5896.233888046587	11
0	3701	5900.177105132397	10
0	3704	5904.291464484387	11
0	3706	5909.149413981808	12
0	3708	5916.808883116645	11
0	3711	5917.901299530571	10
0	3714	5922.446653081744	9
0	3717	5922.688947772165	8
0	3720	5922.99941364005	7
0	3723	5925.644643539664	8
0	3725	5927.13032759299	7
0	3728	5936.738447017392	8
0	3730	5938.129079428063	9
0	3732	5938.362807103251	8
0	3735	5942.230277505249	7
0	3738	5966.099515327338	8
0	3740	5971.466559975007	7
0	3743	5971.509009826917	8
0	3745	5971.61656480361	9
0	3747	5975.290071044805	8
0	3750	5978.277263828932	7
0	3753	5982.469071605283	8
0	3755	5982.513595737007	7
0	3758	5987.177442654684	8
0	3760	5988.935699683212	9
0	3762	5993.005093105728	8
0	3765	5996.857664256549	7
0	3768	5996.971620732029	8
0	3770	5998.95396271248	9
0	3772	6005.09823290444	8
0	3775	6008.064728506817	7
0	3778	6019.360741560496	6
0	3780	6020.023952979671	5
0	3782	6020.645624126962	4
0	3784	6034.304410526085	5
0	3787	6036.844883081502	4
0	3789	6039.645166965052	3
0	3791	6041.255760197106	4
0	3794	6045.093656989059	3
0	3796	6046.009629881395	4
0	3799	6048.14800290966	5
0	3802	6051.120731423601	4
0	3804	6051.152264379145	3
0	3806	6060.446955204105	2
0	3808	6070.240003556025	1
0	3810	6088.225477135789	0
0	3812	6103.71462675319	1
0	3815	6104.047964368309	2
0	3818	6109.319979310767	3
0	3821	6111.270499946631	4
0	3824	6120.455243300078	5
0	3827	6123.503672927941	4
0	3829	6130.32199785079	5
0	3832	6139.003108379757	6
0	3835	6140.752781696498	5
0	3837	6141.870380008595	4
0	3839	6144.487104399361	5
0	3842	6146.444327483851	6
0	3845	6150.093849783172	5
0	3847	6161.821414357176	6
0	3850	6162.428613987442	7
0	3853	6163.618362548092	6
0	3855	6164.767731752856	7
0	3858	6167.330764461782	6
0	3860	6170.205768006984	5
0	3862	6172.390593650183	6
0	3865	6179.338481411795	5
0	3867	6179.671443641195	4
0	3869	6193.570282493655	3
0	3871	6193.913592612972	4
0	3874	6195.418176627129	5
0	3877	6196.078150294733	6
0	3880	6200.820245560072	7
0	3883	6204.094818618258	6
0	3885	6209.865444500324	5
0	3887	6214.887365873125	4
0	3889	6218.512910212541	5
0	3892	6221.000956810168	6
0	3895	6226.443642066745	7
0	3898	6231.386045527138	6
0	3900	6232.18486139387	5
0	3902	6234.2554768123	4
0	3904	6240.711316476934	3
0	3906	6248.275200273965	4
0	3909	6254.987229352939	5
0	3912	6259.45056955126	4
0	3914	6260.035564400548	5
0	3917	6265.169304434615	4
0	3919	6267.046405727157	5
0	3922	6271.10199873506	4
0	3924	6272.50142843278	3
0	3926	6272.949730800464	4
0	3929	6273.103636044133	5
0	3932	6275.382152732864	6
0	3935	6277.24833395112	5
0	3937	6279.446170907773	4
0	3939	6282.219129319549	5
0	3942	6291.490960768846	6
0	3945	6301.142269434074	5
0	3947	6305.359003393372	4
0	3949	6310.488185035898	3
0	3951	6312.492992211384	4
0	3954	6313.229505934752	3
0	3956	6316.437979809562	4
0	3959	6320.112315907542	5
0	3962	6322.750341290279	6
0	3965	6324.709228230535	7
0	3968	6325.608958149961	8
0	3970	6327.182403061985	9
0	3972	6327.732389978877	8
0	3975	6330.815027881053	7
0	3978	6330.925051198576	6
0	3980	6339.025583939256	5
0	3982	6351.454496888745	4
0	3984	6361.086713356873	5
0	3987	6364.028874760662	6
0	3990	6365.380661769621	7
0	3993	6372.848263067354	6
0	3995	6375.58327610795	5
0	3997	6385.123300744527	4
0	3999	6389.406354955286	5
0	4002	6397.366712477811	4
0	4004	6404.483852657947	3
0	4006	6406.726536698273	4
0	4009	6412.871324809693	5
0	4012	6413.380443296791	6
0	4015	6430.012730800567	7
0	4018	6433.361628699214	6
0	4020	6440.880773912177	7
0	4023	6441.617684994377	8
0	4025	6444.509260677359	7
0	4028	6445.88491273254	8
0	4030	6448.341623037776	9
0	4032	6451.557042471492	10
0	4034	6455.376653397511	11
0	4036	6455.396943863142	12
0	4038	6457.312232232726	13
0	4040	6457.763212853095	12
0	4043	6459.005691089278	13
0	4045	6466.613950307952	12
0	4048	6469.868791623299	11
0	4051	6481.623604783233	12
0	4053	6489.798395238693	11
0	4056	6490.588865199983	10
0	4059	6492.786539942472	11
0	4061	6495.246746064563	10
0	4064	6496.84915807367	11
0	4066	6498.028734916101	10
0	4069	6502.074543388467	11
0	4071	6504.138987863441	12
0	4073	6504.757044195072	11
0	4076	6505.71895185295	10
0	4079	6508.583943320724	11
0	4081	6513.779008838605	12
0	4083	6516.417428969587	11
0	4086	6516.707844131636	10
0	4089	6520.653100909183	9
0	4092	6523.639455656591	10
0	4094	6525.023176750937	9
0	4097	6528.148557855288	8
0	4100	6530.794436675718	9
0	4102	6531.015100379844	10
0	4104	6541.163191480257	11
0	4106	6551.507838034196	12
0	4108	6553.2384800714	13
0	4110	6556.544240439974	12
0	4113	6557.162854361344	11
0	4116	6560.342277846929	10
0	4119	6561.714223603698	9
0	4122	6562.699673416196	8
0	4125	6564.788660445963	9
0	4127	6565.912816684641	10
0	4129	6568.329249159421	9
0	4132	6571.870537542582	8
0	4135	6572.923021100286	9
0	4137	6576.424808822372	10
0	4139	6576.890676401708	9
0	4142	6576.980753946415	10
0	4144	6580.209210149484	9
0	4147	6591.979691118598	8
0	4150	6593.265763479813	9
0	4152	6594.820143436108	8
0	4155	6599.721045837566	9
0	4157	6600.262486049139	8
0	4160	6602.264565640384	7
0	4163	6607.191706507725	8
0	4165	6607.529150189013	7
0	4168	6611.366319177324	8
0	4170	6612.729971948024	7
0	4173	6613.266780258498	6
0	4175	6614.289300785824	7
0	4178	6616.417134030713	6
0	4180	6626.825151508662	5
0	4182	6628.351485529694	6
0	4185	6635.372817584424	5
0	4187	6642.462726562387	6
0	4190	6643.600556073403	7
0	4193	6644.140078236238	8
0	4195	6647.542695196397	7
0	4198	6649.189411327027	6
0	4200	6654.65515256639	5
0	4202	6657.835546393125	4
0	4204	6658.404701780424	5
0	4207	6664.06596477556	6
0	4210	6666.090714548678	5
0	4212	6666.35646015538	6
0	4215	6667.930573314856	5
0	4217	6677.697967045538	6
0	4220	6679.609926484981	5
0	4222	6683.030088541722	4
0	4224	6700.384279697928	3
0	4226	6700.984224757816	4
0	4229	6701.866682466231	3
0	4231	6704.26162232132	4
0	4234	6706.9162581087	3
0	4236	6708.149703789664	2
0	4238	6716.659544977188	1
0	4240	6717.171174862088	2
0	4243	6719.184117352011	1
0	4245	6723.329965825202	2
0	4248	6724.368360035895	3
0	4251	6726.136996211953	2
0	4253	6734.423677509079	3
0	4256	6735.363965616163	4
0	4259	6736.969167884047	5
0	4262	6745.437137281429	6
0	4265	6751.259126586173	5
0	4267	6753.340401260021	6
0	4270	6755.22104681902	5
0	4272	6756.204187340387	4
0	4274	6756.357131631441	3
0	4276	6770.268025137367	4
0	4279	6770.666789469523	3
0	4281	6770.726516326735	4
0	4284	6781.101330907723	3
0	4286	6783.530951797854	4
0	4289	6784.964992057535	5
0	4292	6789.013194850326	6
0	4295	6789.484963215645	7
0	4298	6797.028389516022	8
0	4300	6803.665409505921	9
0	4302	6807.438313291889	8
0	4305	6808.972840597546	7
0	4308	6812.753605922963	8
0	4310	6814.720734922883	7
0	4313	6816.351573890677	6
0	4315	6817.616468902068	7
0	4318	6817.929439014702	8
0	4320	6820.454798223903	9
0	4322	6820.991662474192	8
0	4325	6821.61389290697	9
0	4327	6826.237491120036	8
0	4330	6829.313851126687	9
0	4332	6831.347018475824	8
0	4335	6838.611793309918	9
0	4337	6840.756227717787	8
0	4340	6847.297372873211	9
0	4342	6851.589332897256	10
0	4344	6857.793301619062	9
0	4347	6859.341258611736	8
0	4350	6859.986070421216	9
0	4352	6860.275872649254	10
0	4354	6860.627639770165	11
0	4356	6861.561731897112	12
0	4358	6863.364680130431	11
0	4361	6864.304852925133	10
0	4364	6864.684319731741	9
0	4367	6876.677423117447	8
0	4370	6877.583954714429	9
0	4372	6894.148543856999	8
0	4375	6894.16172816974	9
0	4377	6900.250975880789	10
0	4379	6900.496373507128	9
0	4382	6902.968812893434	10
0	4384	6905.268357968071	9
0	4387	6906.485943217609	8
0	4390	6908.437130754925	7
0	4393	6922.633409867285	6
0	4395	6925.037697597823	5
0	4397	6925.190524216629	6
0	4400	6927.261090950507	7
0	4403	6928.733473657114	8
0	4405	6933.026037597928	9
0	4407	6933.318812121893	8
0	4410	6934.18020361258	7
0	4413	6938.945797762716	8
0	4415	6944.352789369676	7
0	4418	6944.625230492398	6
0	4420	6949.395580966112	5
0	4422	6953.084353334713	6
0	4425	6960.297234070871	5
0	4427	6968.47725376467	4
0	4429	6987.300697464194	5
0	4432	6993.157410204153	4
0	4434	7000.671634143718	5
0	4437	7002.187806865077	6
0	4440	7008.097039310876	5
0	4442	7015.490407357844	4
0	4444	7019.143110584126	3
0	4446	7024.733897742306	2
0	4448	7030.986160216746	3
0	4451	7038.340895421476	2
0	4453	7044.534506890175	3
0	4456	7048.302235538541	4
0	4459	7062.179523118514	3
0	4461	7062.610094839896	4
0	4464	7071.675821521059	5
0	4467	7075.648623462731	6
0	4470	7078.674709368629	5
0	4472	7079.439953339231	6
0	4475	7080.45053851793	5
0	4477	7084.861949739431	4
0	4479	7085.482804888929	3
0	4481	7094.929873302034	4
0	4484	7103.445922456655	5
0	4487	7111.212459315711	4
0	4489	7113.349658582993	3
0	4491	7121.455939518534	4
0	4494	7126.635808012693	3
0	4496	7127.834333935148	2
0	4498	7134.903114729719	3
0	4501	7140.84278605668	4
0	4504	7141.196458463415	5
0	4507	7141.225922241389	6
0	4510	7141.358575544123	5
0	4512	7144.017291211409	6
0	4515	7145.807018514766	7
0	4518	7151.381812160463	8
0	4520	7151.407679653054	7
0	4523	7154.540334732157	8
0	4525	7157.139931135583	9
0	4527	7157.996513347054	10
0	4529	7158.069511240386	9
0	4532	7163.311995604123	10
0	4534	7164.990316399067	9
0	4537	7167.999787341671	10
0	4539	7169.28565369449	11
0	4541	7172.112761798074	10
0	4544	7173.200325122327	9
0	4547	7175.585597386402	8
0	4550	7186.594682980713	7
0	4553	7188.272577477402	6
0	4555	7196.731257423221	5
0	4557	7197.538086460767	6
0	4560	7198.224931015085	7
0	4563	7202.593060131893	8
0	4565	7203.00427800574	9
0	4567	7204.10479273022	10
0	4569	7207.793930322919	9
0	4572	7208.256152189041	8
0	4575	7217.066047994189	7
0	4578	7222.738133178693	8
0	4580	7225.571761452692	9
0	4582	7235.816726896508	10
0	4584	7238.100248109019	11
0	4586	7242.594776251065	12
0	4588	7245.488613412644	11
0	4591	7246.164054598441	10
0	4594	7249.12000034742	11
0	4596	7249.776921022995	10
0	4599	7250.593491861229	9
0	4602	7254.366234904866	8
0	4605	7258.257300746314	9
0	4607	7259.407219028256	10
0	4609	7260.458198538751	9
0	4612	7261.325289943769	10
0	4614	7263.136392660808	11
0	4616	7271.814484041088	12
0	4618	7271.878992874077	11
0	4621	7272.497737442755	12
0	4623	7280.800418379656	13
0	4625	7281.283736352836	12
0	4628	7287.825980352333	13
0	4630	7288.60330233416	12
0	4633	7292.674982752533	11
0	4636	7297.725213482989	10
0	4639	7298.111560385702	11
0	4641	7299.952396799767	10
0	4644	7300.397973861796	11
0	4646	7301.263762205499	12
0	4648	7302.37994034861	13
0	4650	7306.370902112829	12
0	4653	7307.567405492562	13
0	4655	7311.065263491775	12
0	4658	7312.680693056389	13
0	4660	7318.089865030322	14
0	4662	7319.702834617229	15
0	4664	7322.225327733949	16
0	4666	7324.612989574346	15
0	4669	7331.704084212786	16
0	4671	7331.775846400935	15
0	4674	7335.047141281147	14
0	4677	7339.215155002163	15
0	4679	7343.940892070983	16
0	4681	7346.971592059191	15
0	4684	7348.132925651322	14
0	4687	7353.824693673203	15
0	4689	7357.94896763236	14
0	4692	7358.108388672714	13
0	4695	7364.737482686128	14
0	4697	7372.004658962832	13
0	4700	7375.212272173236	12
0	4703	7377.195147949819	11
0	4706	7382.86785404784	10
0	4709	7384.064604218377	11
0	4711	7388.173070502542	10
0	4714	7389.410390710513	11
0	4716	7392.887966013307	10
0	4719	7393.664282724655	9
0	4722	7396.162339542073	10
0	4724	7401.87256019777	9
0	4727	7402.985919167597	8
0	4730	7403.447574460571	7
0	4733	7407.922961400366	8
0	4735	7408.105350878495	9
0	4737	7408.853319334939	8
0	4740	7409.439121425773	9
0	4742	7410.009710127697	10
0	4744	7414.862592745624	9
0	4747	7415.468255642369	8
0	4750	7416.059539175514	9
0	4752	7422.352199973262	10
0	4754	7422.790380216626	9
0	4757	7423.922402422427	8
0	4760	7427.248031071598	9
0	4762	7427.90122188452	8
0	4765	7428.032050269385	9
0	4767	7431.790279284666	10
0	4769	7433.964086636126	11
0	4771	7437.128756944515	10
0	4774	7443.129652614177	11
0	4776	7443.681049760623	10
0	4779	7446.822892044067	11
0	4781	7446.889604169515	10
0	4784	7453.89759468865	11
0	4786	7458.339321603514	12
0	4788	7461.341135514897	11
0	4791	7470.598029695723	10
0	4794	7470.628533206203	11
0	4796	7471.124053313398	10
0	4799	7471.266224546228	11
0	4801	7473.070392912967	12
0	4803	7474.879398954756	13
0	4805	7476.920749352071	12
0	4808	7477.084887627557	13
0	4810	7478.20538413657	12
0	4813	7478.903980389511	11
0	4816	7479.56077244128	12
0	4818	7480.745632713303	13
0	4820	7481.012390494226	12
0	4823	7487.744148383122	13
0	4825	7492.064033641935	14
0	4827	7495.676274180855	13
0	4830	7503.910237873547	14
0	4832	7504.479331283335	13
0	4835	7507.017547624074	14
0	4837	7530.971018194873	13
0	4840	7531.224457177092	14
0	4842	7532.220595237511	13
0	4845	7532.600457386823	12
0	4848	7536.077827903308	13
0	4850	7538.275296345589	14
0	4852	7543.976168128592	13
0	4855	7544.390250973948	14
0	4857	7554.682126926644	13
0	4860	7554.9599810418	12
0	4863	7558.895672754672	11
0	4866	7564.808773246352	10
0	4869	7569.764709672343	9
0	4872	7570.813852620188	8
0	4875	7573.725719692138	7
0	4878	7574.209261149454	6
0	4880	7580.131803537614	7
0	4883	7581.691035148744	6
0	4885	7584.206634902855	5
0	4887	7595.640747628686	4
0	4889	7600.648658371687	5
0	4892	7602.110234448168	4
0	4894	7602.552706771297	5
0	4897	7619.92813981341	4
0	4899	7626.205182595568	3
0	4901	7630.765672934242	2
0	4903	7631.068647080973	3
0	4906	7635.704899631455	4
0	4909	7635.987607975421	5
0	4912	7643.690090730546	6
0	4915	7645.310901800541	7
0	4918	7648.529134009346	6
0	4920	7653.00848089303	7
0	4923	7653.979624459993	8
0	4925	7666.826949746611	9
0	4927	7672.173852194773	8
0	4930	7672.726146254536	7
0	4933	7676.058524372766	6
0	4935	7682.753698056774	7
0	4938	7689.53463123933	6
0	4940	7690.1945716963	5
0	4942	7691.268209224068	6
0	4945	7691.620233918723	7
0	4948	7699.327571518969	8
0	4950	7703.10929167029	7
0	4953	7705.59372428386	6
0	4955	7711.418451476921	5
0	4957	7711.71264877334	4
0	4959	7711.851311421416	3
0	4961	7713.489543776191	4
0	4964	7718.322683655038	5
0	4967	7729.189817701089	6
0	4970	7731.624433491365	7
0	4973	7732.08601872486	6
0	4975	7739.821756800858	7
0	4978	7743.381639925859	8
0	4980	7744.257799575971	9
0	4982	7748.05027163433	8
0	4985	7756.657974595609	9
0	4987	7756.705932591859	10
0	4989	7758.173849974718	11
0	4991	7764.006663679181	10
0	4994	7774.981778003188	11
0	4996	7788.121106451763	10
0	4999	7789.036466717276	9
0	5002	7790.321794306662	8
0	5005	7792.528250154257	7
0	5008	7794.550640504109	8
0	5010	7796.014618723332	9
0	5012	7799.166922195148	8
0	5015	7806.332207147996	9
0	5017	7808.507144043061	10
0	5019	7809.400641976695	9
0	5022	7810.593132726579	8
0	5025	7810.743980776791	7
0	5028	7811.761559751684	6
0	5030	7816.308224476046	5
0	5032	7818.360265980576	6
0	5035	7818.498723741496	5
0	5037	7819.359415457406	4
0	5039	7824.530576858694	5
0	5042	7825.175518904073	4
0	5044	7827.618763740626	5
0	5047	7828.165813246023	4
0	5049	7835.647404316613	3
0	5051	7836.199012778764	2
0	5053	7836.248926648697	3
0	5056	7850.589044168811	2
0	5058	7873.833219272855	3
0	5061	7877.58596932858	2
0	5063	7879.744995825565	3
0	5066	7880.025632641399	4
0	5069	7885.054586053972	3
0	5071	7887.315088859828	4
0	5074	7888.291206148582	3
0	5076	7893.621108667449	4
0	5079	7893.804644824641	5
0	5082	7895.489930293859	6
0	5085	7900.008465509053	5
0	5087	7905.738485381249	6
0	5090	7915.367744247789	7
0	5093	7923.364954438311	6
0	5095	7928.194185535572	5
0	5097	7930.058333930169	4
0	5099	7931.023231387492	5
0	5102	7935.022223891117	4
0	5104	7954.093559160509	3
0	5106	7954.54091373552	2
0	5108	7957.734278140652	3
0	5111	7961.710553592299	4
0	5114	7967.794409224676	5
0	5117	7968.070328080183	6
0	5120	7969.894981194404	5
0	5122	7979.058235279597	4
0	5124	7988.596033901858	5
0	5127	7991.216910204376	4
0	5129	8001.124478794302	3
0	5131	8005.751702383333	4
0	5134	8007.797860006612	3
0	5136	8011.023128875543	2
0	5138	8014.201560789035	3
0	5141	8017.217241218144	4
0	5144	8024.072350209647	5
0	5147	8025.998697684888	4
0	5149	8027.436172195825	5
0	5152	8030.022971875303	4
0	5154	8031.57810327148	3
0	5156	8033.035294252231	4
0	5159	8037.026184213384	5
0	5162	8042.326652856371	4
0	5164	8044.141385203139	5
0	5167	8046.813147224402	6
0	5170	8051.084766879232	7
0	5173	8051.505287905267	6
0	5175	8055.036461637957	5
0	5177	8060.961587622024	4
0	5179	8064.165398705422	5
0	5182	8065.4726351408	4
0	5184	8070.388929618027	5
0	5187	8072.983418459189	6
0	5190	8076.217627047336	7
0	5193	8076.561253286614	8
0	5195	8080.534347057987	9
0	5197	8082.180962768677	8
0	5200	8084.295848060149	7
0	5203	8085.1673412201	6
0	5205	8097.947398049683	5
0	5207	8103.912473132685	6
0	5210	8106.0890966445	5
0	5212	8107.012044260175	4
0	5214	8125.70317961437	3
0	5216	8129.291348266934	2
0	5218	8133.469238169855	1
0	5220	8145.5698559901	2
0	5223	8153.631923078338	3
0	5226	8156.232354775127	4
0	5229	8159.167736270779	5
0	5232	8161.435325886735	6
0	5235	8164.725120194152	5
0	5237	8165.088660819444	4
0	5239	8173.173763121941	5
0	5242	8176.203416941392	4
0	5244	8185.470564833175	5
0	5247	8185.737907185301	4
0	5249	8194.773930776957	5
0	5252	8198.621013119494	4
0	5254	8198.705472224335	3
0	5256	8198.79148481856	4
0	5259	8201.017019638269	5
0	5262	8203.156769519398	4
0	5264	8205.775483597274	5
0	5267	8209.604721276364	4
0	5269	8213.967263792775	5
0	5272	8216.203156435975	4
0	5274	8217.577428231188	3
0	5276	8218.774703730423	4
0	5279	8221.361411207939	5
0	5282	8223.118032424952	4
0	5284	8241.768491641894	5
0	5287	8246.135641888171	4
0	5289	8249.310012605758	5
0	5292	8253.1371966372	4
0	5294	8257.216396971556	5
0	5297	8259.871342323845	6
0	5300	8262.883277327265	7
0	5303	8265.566515639894	6
0	5305	8278.241824089707	7
0	5308	8290.370392504685	6
0	5310	8291.156394352182	5
0	5312	8296.420356384656	4
0	5314	8306.457886399115	3
0	5316	8323.745419163151	4
0	5319	8329.786040504273	5
0	5322	8333.741538776039	4
0	5324	8341.42863804959	5
0	5327	8342.831315167064	6
0	5330	8343.167628658128	7
0	5333	8344.132039712303	6
0	5335	8350.499942531959	5
0	5337	8359.756630702879	4
0	5339	8360.405946910781	5
0	5342	8372.667367252086	4
0	5344	8373.381050288327	5
0	5347	8373.565447536218	6
0	5350	8377.314866362104	7
0	5353	8384.156191350746	8
0	5355	8385.690144553211	7
0	5358	8393.245558114373	8
0	5360	8403.716423717977	9
0	5362	8405.396188695451	8
0	5365	8406.562518262538	9
0	5367	8406.752220788537	8
0	5370	8407.445870951303	9
0	5372	8414.580982744966	8
0	5375	8419.923690339006	7
0	5378	8422.801542622489	6
0	5380	8425.647419853383	5
0	5382	8432.009069063333	6
0	5385	8436.239146234196	7
0	5388	8443.247813657873	8
0	5390	8449.783476802046	9
0	5392	8470.714532966982	8
0	5395	8472.119795504419	9
0	5397	8472.384077634606	10
0	5399	8478.226826274891	11
0	5401	8482.7588438147	10
0	5404	8488.787913471056	9
0	5407	8492.117478630111	8
0	5410	8492.874086993588	9
0	5412	8496.614591087718	10
0	5414	8500.53047178691	9
0	5417	8502.193072989161	8
0	5420	8504.454917498733	9
0	5422	8509.236519883663	8
0	5425	8509.397377972982	7
0	5428	8514.681187943743	6
0	5430	8519.251990401035	5
0	5432	8522.947675068153	4
0	5434	8524.593239973232	5
0	5437	8531.573294848444	4
0	5439	8537.406002395837	3
0	5441	8540.701036539422	4
0	5444	8541.113548203551	3
0	5446	8546.997347914884	2
0	5448	8549.278763166759	1
0	5450	8550.01439153906	2
0	5453	8575.59101356813	1
0	5455	8578.288275065094	0
0	5457	8579.101612729843	1
0	5460	8603.273590448203	2
0	5463	8603.769249221629	3
0	5466	8604.355542357577	4
0	5469	8607.257586565337	5
0	5472	8608.011816403899	4
0	5474	8618.299343063656	5
0	5477	8637.18056089131	4
0	5479	8642.351266533608	3
0	5481	8648.723763497522	4
0	5484	8665.458190964173	3
0	5486	8669.297634206599	4
0	5489	8675.223730509906	3
0	5491	8678.890432677879	2
0	5493	8683.612211703758	3
0	5496	8690.864953400586	4
0	5499	8705.010673984425	3
0	5501	8708.846477811906	2
0	5503	8715.285868713353	3
0	5506	8737.620133107329	4
0	5509	8738.676266894288	3
0	5511	8746.096334635361	2
0	5513	8746.299781522261	3
0	5516	8754.747490130941	4
0	5519	8755.976982354576	5
0	5522	8756.521611550489	6
0	5525	8761.2358415512	5
0	5527	8766.723677737723	4
0	5529	8767.251080770899	5
0	5532	8775.473703876897	4
0	5534	8777.383563748024	3
0	5536	8777.933139787693	2
0	5538	8789.01438437387	3
0	5541	8796.092419646628	2
0	5543	8809.808376306548	3
0	5546	8818.042112922541	4
0	5549	8823.691409060987	3
0	5551	8847.499927622068	4
0	5554	8849.985851116864	3
0	5556	8862.197412462485	4
0	5559	8863.704262536467	3
0	5561	8864.503428725962	2
0	5563	8893.377476760786	1
0	5565	8893.455535738086	2
0	5568	8895.286768883404	3
0	5571	8903.169697503907	4
0	5574	8916.344430732771	5
0	5577	8925.238770808174	4
0	5579	8927.085064791515	5
0	5582	8927.25092726801	6
0	5585	8945.922054124368	5
0	5587	8950.450818592468	6
0	5590	8954.313937148504	5
0	5592	8954.738959676083	4
0	5594	8971.879661039232	5
0	5597	8980.58627377073	4
0	5599	8988.228283242041	5
0	5602	8995.37168048909	4
0	5604	8996.133901912971	5
0	5607	8997.919383527151	4
0	5609	8998.050026343873	3
0	5611	9005.216174264943	4
0	5614	9017.251522285932	3
0	5616	9021.866052776642	4
0	5619	9027.130901595583	5
0	5622	9027.226082656382	4
0	5624	9027.834748510045	5
0	5627	9036.915280529233	6
0	5630	9042.476351560519	7
0	5633	9046.039509189515	8
0	5635	9053.127118768861	7
0	5638	9053.498748377621	6
0	5640	9058.389319901406	5
0	5642	9062.040985971479	6
0	5645	9064.485583432326	5
0	5647	9067.963646079505	6
0	5650	9068.265111664497	7
0	5653	9069.559967424206	8
0	5655	9071.691030787552	9
0	5657	9071.920968302467	8
0	5660	9075.190219538977	9
0	5662	9077.245708665096	8
0	5665	9078.711095414413	9
0	5667	9081.390824563379	10
0	5669	9084.289178703738	9
0	5672	9086.345420904994	8
0	5675	9087.178209273525	7
0	5678	9088.483676197687	6
0	5680	9091.64201494558	5
0	5682	9095.047833837924	6
0	5685	9100.301583151958	7
0	5688	9101.233941812177	6
0	5690	9103.172895692557	5
0	5692	9106.54431304995	4
0	5694	9112.77333072688	5
0	5697	9121.364368335128	4
0	5699	9123.864380444993	3
0	5701	9132.110881592175	2
0	5703	9152.392576596916	3
0	5706	9155.391681469294	4
0	5709	9157.03860575399	3
0	5711	9159.320588767935	4
0	5714	9161.00163806933	5
0	5717	9165.216372463029	6
0	5720	9167.24302158437	5
0	5722	9174.685392492498	6
0	5725	9175.013381131985	7
0	5728	9187.908501984718	6
0	5730	9188.018056686396	7
0	5733	9189.316549001048	8
0	5735	9192.441820450369	7
0	5738	9198.549538658073	6
0	5740	9198.757140194861	5
0	5742	9199.285150217739	6
0	5745	9199.71101781369	5
0	5747	9204.056516699741	4
0	5749	9205.852233986898	3
0	5751	9215.766645847275	2
0	5753	9223.649636469669	3
0	5756	9225.961961246426	4
0	5759	9228.700418127305	3
0	5761	9234.221302020758	4
0	5764	9235.921656242135	5
0	5767	9238.636924109676	4
0	5769	9249.432868138563	3
0	5771	9251.170874809838	2
0	5773	9252.827227823341	3
0	5776	9263.04128773187	4
0	5779	9263.106880788867	3
0	5781	9269.206468824682	4
0	5784	9273.436450330343	3
0	5786	9284.096917221246	4
0	5789	9285.576100598227	5
0	5792	9286.840263003094	4
0	5794	9288.819379421182	5
0	5797	9294.659464170865	4
0	5799	9300.92206631044	5
0	5802	9303.789451375179	6
0	5805	9310.827066102604	5
0	5807	9330.784786643427	4
0	5809	9332.558703571463	3
0	5811	9333.767467288494	4
0	5814	9334.831261846045	5
0	5817	9341.149130031352	6
0	5820	9341.490486210177	7
0	5823	9341.491574843871	8
0	5825	9349.536243332453	7
0	5828	9351.593624713225	8
0	5830	9361.134253610501	9
0	5832	9368.53398408963	10
0	5834	9377.717923072947	9
0	5837	9382.732275989537	8
0	5840	9382.90442101316	9
0	5842	9392.477469245992	8
0	5845	9395.189962326879	9
0	5847	9397.988527906019	8
0	5850	9398.113072448942	9
0	5852	9400.072872497702	10
0	5854	9408.425588966766	9
0	5857	9415.166604507751	8
0	5860	9417.314546503254	9
0	5862	9419.398611991183	8
0	5865	9422.717952118207	9
0	5867	9423.945164718402	8
0	5870	9424.251274932472	9
0	5872	9424.885578465776	10
0	5874	9426.061593107648	9
0	5877	9440.351281764968	8
0	5880	9444.797970835131	7
0	5883	9457.198455522234	8
0	5885	9457.590384783615	7
0	5888	9458.557483636	6
0	5890	9465.04898795668	5
0	5892	9465.168784919709	6
0	5895	9467.241539080259	7
0	5898	9470.478825511921	6
0	5900	9482.406522643743	7
0	5903	9486.145314453202	8
0	5905	9495.649207090663	7
0	5908	9496.004601228042	6
0	5910	9506.34392769461	5
0	5912	9508.635917596774	4
0	5914	9511.935709699847	5
0	5917	9513.451041710094	6
0	5920	9515.222878938471	5
0	5922	9532.970054414626	6
0	5925	9533.097688876452	7
0	5928	9533.384623682647	8
0	5930	9536.183700869491	7
0	5933	9537.486044957701	8
0	5935	9537.504741463576	7
0	5938	9539.103731235789	8
0	5940	9547.003695015453	7
0	5943	9547.375193983138	6
0	5945	9552.26727263807	7
0	5948	9556.896199724082	6
0	5950	9559.181480306777	7
0	5953	9560.329931926418	6
0	5955	9571.418153525046	7
0	5958	9579.328394766687	6
0	5960	9584.770340702758	5
0	5962	9593.343392518899	6
0	5965	9593.76240064042	5
0	5967	9593.791326647299	4
0	5969	9594.262272628569	3
0	5971	9600.601601875947	2
0	5973	9604.732766687957	3
0	5976	9611.345393511929	4
0	5979	9614.776657009984	5
0	5982	9615.684911585306	6
0	5985	9617.280659543603	7
0	5988	9618.229595830113	6
0	5990	9626.686004948512	5
0	5992	9631.818290515196	6
0	5995	9631.912154019373	5
0	5997	9632.233304095218	6
0	6000	9634.012246517621	5
0	6002	9637.439562634089	6
0	6005	9638.953848348517	5
0	6007	9640.269431684678	6
0	6010	9641.292461773907	5
0	6012	9647.567505716752	4
0	6014	9652.347947470811	5
0	6017	9654.729626398309	6
0	6020	9657.118976731371	5
0	6022	9662.018833456	4
0	6024	9662.799907268191	3
0	6026	9665.475778765862	4
0	6029	9682.295033698683	5
0	6032	9685.568008296469	6
0	6035	9689.268071094004	5
0	6037	9692.587052522576	4
0	6039	9697.102889740713	3
0	6041	9700.685389688964	4
0	6044	9707.297131343095	3
0	6046	9709.864100256231	4
0	6049	9711.544187549719	5
0	6052	9712.157114931583	4
0	6054	9712.584501908	3
0	6056	9714.58372374288	4
0	6059	9719.490660479536	3
0	6061	9719.846363739831	4
0	6064	9719.993190533943	5
0	6067	9720.010991755888	4
0	6069	9725.978455774747	5
0	6072	9726.031638135308	4
0	6074	9727.036760590287	5
0	6077	9742.136358380095	6
0	6080	9742.326972666858	5
0	6082	9745.240954189792	4
0	6084	9748.633524468836	3
0	6086	9754.797138866265	4
0	6089	9757.031249750656	3
0	6091	9763.066798099561	2
0	6093	9768.32151428201	3
0	6096	9773.830792367687	4
0	6099	9773.92229602699	3
0	6101	9776.339926998819	4
0	6104	9779.595566653007	5
0	6107	9780.785777268994	4
0	6109	9797.190756685437	5
0	6112	9803.661128937791	6
0	6115	9808.983925818889	7
0	6118	9809.3991731793	6
0	6120	9809.419491545545	5
0	6122	9810.697721394145	6
0	6125	9812.196591692403	7
0	6128	9814.30102245779	6
0	6130	9820.15846028322	5
0	6132	9828.277395000135	6
0	6135	9828.342296278936	7
0	6138	9828.816323269443	6
0	6140	9831.801681388784	7
0	6143	9835.696218241502	8
0	6145	9838.220537708308	7
0	6148	9840.28158656222	8
0	6150	9842.091927871869	7
0	6153	9842.945052762535	6
0	6155	9847.004822977078	5
0	6157	9855.266853131068	4
0	6159	9855.502961377654	3
0	6161	9861.766991441317	4
0	6164	9862.60967528589	5
0	6167	9863.55201700051	6
0	6170	9867.034977542421	5
0	6172	9867.993820148586	4
0	6174	9870.362986933105	5
0	6177	9872.498206922721	6
0	6180	9877.94473942866	5
0	6182	9889.461880259269	6
0	6185	9893.312969436633	5
0	6187	9893.555919724372	6
0	6190	9895.245103579384	5
0	6192	9901.007084341847	4
0	6194	9901.915454132002	5
0	6197	9909.912753826968	4
0	6199	9917.978658962375	5
0	6202	9919.617989679305	4
0	6204	9922.547919591124	5
0	6207	9925.270226864742	6
0	6210	9925.931494195291	5
0	6212	9925.97605246239	4
0	6214	9927.66638598778	3
0	6216	9929.433421430089	4
0	6219	9929.663213007105	5
0	6222	9935.107529262838	6
0	6225	9935.672433671113	5
0	6227	9945.20314786723	6
0	6230	9953.512088113791	5
0	6232	9956.600340985482	4
0	6234	9966.41656497631	3
0	6236	9977.18875779711	2
0	6238	9978.867897842091	3
0	6241	9990.394551117588	2
0	6243	10004.016442817255	3
0	6246	10007.142352468309	4
0	6249	10007.642268742523	5
0	6252	10009.267068909002	4
0	6254	10012.261304418194	3
0	6256	10013.022106183468	2
0	6258	10026.339048923198	3
0	6261	10033.561578347924	2
0	6263	10040.16527469814	3
0	6266	10051.568973851674	2
0	6268	10055.905033748033	3
0	6271	10068.217745495428	4
0	6274	10073.592296255084	5
0	6277	10074.342406857248	4
0	6279	10076.723115027456	3
0	6281	10080.159712229181	4
0	6284	10082.826418607313	3
0	6286	10083.594677319552	2
0	6288	10087.005030344876	3
0	6291	10088.504923022706	2
0	6293	10097.23164356196	1
0	6295	10106.167057800912	2
0	6298	10109.312064590918	1
0	6300	10110.587038734099	2
0	6303	10117.77077275294	3
0	6306	10122.629779474909	4
0	6309	10143.264652862448	5
0	6312	10143.39672970964	6
0	6315	10147.652165987405	5
0	6317	10147.839607780773	4
0	6319	10148.804407855459	3
0	6321	10151.800619081138	4
0	6324	10158.568264487371	5
0	6327	10158.650766627908	4
0	6329	10172.437939305114	5
0	6332	10174.352127421409	4
0	6334	10176.318498983247	3
0	6336	10190.902479885689	2
0	6338	10199.853435564948	3
0	6341	10203.327753488786	4
0	6344	10206.236186992182	3
0	6346	10222.084778864037	4
0	6349	10222.764726694666	3
0	6351	10227.64491384898	4
0	6354	10230.097001623977	5
0	6357	10231.5965118212	4
0	6359	10232.648339752099	5
0	6362	10241.611098090736	6
0	6365	10243.652258073506	5
0	6367	10245.155154015696	4
0	6369	10266.040152090921	5
0	6372	10266.569087522206	6
0	6375	10272.988795591049	5
0	6377	10284.404143256437	6
0	6380	10288.736177716641	7
0	6383	10290.105916054437	6
0	6385	10297.149117870362	5
0	6387	10301.946403580311	4
0	6389	10305.018555032795	3
0	6391	10306.433571215583	2
0	6393	10308.60385655835	1
0	6395	10317.717440947263	2
0	6398	10323.378697717168	3
0	6401	10329.123627200393	4
0	6404	10329.83122054077	5
0	6407	10330.053208881656	4
0	6409	10331.394367207686	3
0	6411	10338.267647675389	2
0	6413	10338.36915854953	3
0	6416	10338.66716830119	2
0	6418	10340.526240251731	3
0	6421	10343.637812848811	2
0	6423	10344.437760088852	3
0	6426	10347.688512888755	2
0	6428	10355.376035839022	3
0	6431	10356.514469325083	4
0	6434	10363.901903830857	3
0	6436	10365.598843574403	2
0	6438	10381.112860853082	3
0	6441	10388.632411121957	2
0	6443	10402.781700543255	3
0	6446	10415.496747815113	2
0	6448	10430.3375494501	3
0	6451	10437.496216620149	2
0	6453	10437.601161338666	3
0	6456	10437.957668306692	4
0	6459	10440.979279828252	3
0	6461	10442.5038092762	4
0	6464	10448.981473691849	5
0	6467	10452.061891872732	4
0	6469	10467.705142405726	5
0	6472	10469.645289691982	4
0	6474	10470.408309197673	5
0	6477	10472.346094983791	6
0	6480	10474.340802691117	7
0	6483	10487.261746737542	8
0	6485	10487.334943501199	7
0	6488	10489.319332679019	8
0	6490	10490.009334256628	7
0	6493	10496.516243256315	6
0	6495	10496.666433267725	5
0	6497	10496.962365871575	6
0	6500	10500.219537289347	5
0	6502	10512.150872003311	6
0	6505	10531.132574983805	7
0	6508	10532.106670225579	6
0	6510	10535.390844794275	7
0	6513	10537.940629333472	8
0	6515	10538.76899629006	7
0	6518	10543.971888662141	6
0	6520	10547.43285089038	5
0	6522	10547.721702435712	6
0	6525	10552.27764525232	7
0	6528	10553.912378477877	8
0	6530	10557.772203222267	7
0	6533	10561.189802785249	8
0	6535	10562.821487960552	7
0	6538	10563.452637022413	6
0	6540	10564.638396408655	7
0	6543	10576.923242642776	6
0	6545	10578.832217344431	5
0	6547	10579.909588306931	4
0	6549	10582.348459029568	3
0	6551	10584.902266770024	4
0	6554	10592.044181677931	5
0	6557	10597.64095726619	6
0	6560	10607.659950659052	5
0	6562	10609.487114854265	6
0	6565	10611.797756882282	5
0	6567	10614.082248607498	4
0	6569	10622.022288298988	5
0	6572	10631.88092278148	6
0	6575	10639.741785447334	7
0	6578	10644.94745405841	6
0	6580	10645.528552717918	5
0	6582	10650.477973096589	4
0	6584	10650.578888524686	5
0	6587	10652.981593872329	6
0	6590	10654.426846349373	5
0	6592	10660.695278362568	6
0	6595	10662.666611724105	5
0	6597	10668.945429925425	6
0	6600	10669.965917932697	5
0	6602	10677.143977977331	4
0	6604	10677.81609923433	5
0	6607	10679.2370864433	4
0	6609	10682.936662350864	3
0	6611	10683.354514068013	4
0	6614	10686.139593305688	5
0	6617	10694.886981925708	6
0	6620	10702.096110693062	7
0	6623	10703.813297430292	6
0	6625	10705.215417043892	5
0	6627	10705.542033805495	4
0	6629	10707.962870938551	5
0	6632	10716.969686040651	4
0	6634	10717.505761090478	5
0	6637	10719.609520661966	6
0	6640	10729.506493820831	7
0	6643	10729.57032678664	6
0	6645	10739.865456196598	7
0	6648	10740.820693214551	6
0	6650	10741.691452338679	7
0	6653	10742.833774332778	6
0	6655	10744.009778392351	5
0	6657	10756.035550593319	6
0	6660	10756.312233605106	7
0	6663	10756.871406662797	6
0	6665	10762.018101325883	7
0	6668	10762.9944262663	6
0	6670	10769.729803378133	7
0	6673	10771.873141537137	8
0	6675	10781.316775748559	7
0	6678	10783.935302345164	6
0	6680	10784.11102404658	7
0	6683	10785.244384880797	6
0	6685	10785.758377700758	7
0	6688	10804.638165906773	8
0	6690	10809.542689867276	7
0	6693	10810.340149157633	8
0	6695	10814.369313505847	9
0	6697	10817.358988541125	8
0	6700	10818.174752370245	9
0	6702	10830.767405714658	8
0	6705	10830.968798383253	7
0	6708	10831.076713126223	6
0	6710	10832.029930233137	7
0	6713	10833.287595504514	6
0	6715	10839.010692876804	5
0	6717	10844.958910130193	6
0	6720	10845.523976978338	5
0	6722	10847.127102327603	4
0	6724	10847.58926406587	5
0	6727	10853.558299164324	4
0	6729	10858.029086285322	5
0	6732	10862.515470342249	4
0	6734	10862.650001388479	5
0	6737	10864.916776282152	6
0	6740	10872.816389146471	7
0	6743	10873.803968092964	8
0	6745	10879.145473892759	7
0	6748	10880.665124095856	8
0	6750	10880.918163321015	7
0	6753	10882.525900145946	8
0	6755	10883.144209542934	7
0	6758	10889.432400332479	8
0	6760	10896.008827986861	7
0	6763	10904.075089378454	8
0	6765	10912.06125296322	7
0	6768	10914.855621015184	6
0	6770	10917.087180252161	7
0	6773	10917.61446889008	6
0	6775	10921.856332516197	5
0	6777	10924.031155121436	6
0	6780	10924.105425574874	5
0	6782	10924.732528261671	6
0	6785	10925.364591785266	5
0	6787	10931.619913989088	6
0	6790	10937.568805015141	5
0	6792	10940.249672937414	6
0	6795	10941.993645048099	7
0	6798	10949.552692612183	8
0	6800	10952.16057512145	9
0	6802	10956.685345567244	8
0	6805	10957.165832514766	9
0	6807	10959.086754251964	8
0	6810	10961.086152146768	7
0	6813	10962.948887875242	8
0	6815	10964.64658578495	7
0	6818	10965.882799709929	6
0	6820	10970.48931666706	7
0	6823	10975.335056324447	6
0	6825	10977.820278214082	7
0	6828	10978.393792381929	6
0	6830	10979.422492936256	5
0	6832	10985.418012560714	6
0	6835	10996.464094600408	7
0	6838	10998.024497987937	8
0	6840	11003.862381616275	7
0	6843	11004.927328582691	8
0	6845	11006.438414466549	9
0	6847	11012.087983099934	10
0	6849	11015.758886654984	9
0	6852	11019.766344906503	8
0	6855	11021.262554003133	9
0	6857	11023.667633700703	10
0	6859	11027.820468322277	11
0	6861	11043.186082478911	12
0	6863	11043.738323893903	13
0	6865	11046.28604463789	14
0	6867	11051.702372828456	13
0	6870	11051.720123560601	12
0	6873	11053.878318123169	11
0	6876	11059.823678264722	10
0	6879	11060.293825937745	11
0	6881	11061.738733084681	12
0	6883	11063.769941169709	13
0	6885	11066.771640254532	14
0	6887	11068.428174817327	15
0	6889	11069.027295072356	16
0	6891	11070.264948410668	15
0	6894	11074.016935522221	14
0	6897	11077.773153024691	15
0	6899	11084.478246539354	14
0	6902	11084.779418675031	13
0	6905	11086.091821321746	14
0	6907	11090.616955660293	13
0	6910	11093.416674052606	14
0	6912	11097.086258501009	15
0	6914	11100.561413399255	16
0	6916	11101.153824407198	17
0	6918	11101.431552000821	16
0	6921	11106.715788469298	17
0	6923	11123.8262976049	16
0	6926	11130.531099070392	15
0	6929	11134.459654836078	14
0	6932	11140.02765565987	15
0	6934	11140.419359895454	16
0	6936	11143.044745491931	17
0	6938	11143.689429998109	16
0	6941	11148.840274421353	17
0	6943	11151.547964082941	16
0	6946	11153.349055415344	15
0	6949	11161.892256310105	16
0	6951	11166.722447558916	15
0	6954	11171.923737462064	14
0	6957	11181.452416105372	15
0	6959	11182.422064867931	14
0	6962	11182.755480000701	15
0	6964	11184.426147039327	14
0	6967	11186.913420847416	13
0	6970	11191.28051206189	12
0	6973	11191.589029239783	13
0	6975	11194.306494619374	12
0	6978	11195.188209112131	13
0	6980	11198.555552596421	12
0	6983	11206.544224225483	11
0	6986	11208.00484295049	10
0	6989	11209.445093201076	11
0	6991	11210.349467951336	10
0	6994	11216.509006553965	9
0	6997	11222.427047967286	10
0	6999	11230.138582740328	9
0	7002	11230.693536871709	8
0	7005	11231.669092898029	7
0	7008	11236.473994855707	8
0	7010	11238.962763515196	9
0	7012	11239.897246303487	8
0	7015	11240.800164555069	9
0	7017	11246.928359574134	10
0	7019	11255.438956793021	11
0	7021	11259.115484869795	12
0	7023	11259.665246517397	11
0	7026	11262.454083608228	10
0	7029	11264.125016030394	9
0	7032	11267.731509079095	8
0	7035	11270.016654091949	7
0	7038	11274.30537492652	8
0	7040	11283.324574159327	7
0	7043	11283.951147085082	8
0	7045	11288.824175810062	7
0	7048	11290.450063547093	6
0	7050	11300.502915866551	5
0	7052	11305.003286096763	6
0	7055	11306.251164306837	7
0	7058	11308.798206748603	6
0	7060	11319.534521838659	7
0	7063	11323.224688168203	8
0	7065	11323.771625694515	9
0	7067	11325.821178985835	10
0	7069	11327.957753173878	9
0	7072	11329.71739102926	10
0	7074	11331.108178745743	9
0	7077	11332.493324096849	10
0	7079	11338.91704085859	9
0	7082	11345.719947832455	8
0	7085	11348.74192003297	7
0	7088	11352.636627223864	8
0	7090	11353.464264964658	7
0	7093	11354.836143155896	6
0	7095	11354.949227442407	5
0	7097	11355.310262305968	6
0	7100	11355.360178784466	5
0	7102	11355.862022488472	6
0	7105	11370.79239110982	5
0	7107	11377.258654561187	6
0	7110	11377.268301273912	5
0	7112	11380.645517002485	6
0	7115	11381.327826970134	5
0	7117	11383.153765406754	6
0	7120	11390.957048084925	5
0	7122	11394.717194555796	6
0	7125	11396.105313388282	7
0	7128	11396.774465315759	8
0	7130	11399.109351418111	7
0	7133	11401.676605275114	8
0	7135	11403.17440480286	7
0	7138	11412.592201880955	6
0	7140	11418.830896679983	5
0	7142	11423.346982454636	4
0	7144	11428.224168476097	3
0	7146	11428.750679814428	2
0	7148	11437.269427692285	3
0	7151	11438.610048255477	4
0	7154	11439.161155281284	3
0	7156	11439.355516029025	4
0	7159	11440.285636069083	3
0	7161	11441.56361394832	2
0	7163	11444.11727865668	3
0	7166	11445.2870907917	4
0	7169	11453.294549587152	5
0	7172	11455.939307529512	6
0	7175	11459.496346336869	5
0	7177	11459.630319808221	6
0	7180	11461.116749785679	7
0	7183	11464.003048486508	6
0	7185	11479.36974965536	5
0	7187	11495.211512297861	6
0	7190	11497.181461739822	7
0	7193	11498.073046354583	6
0	7195	11503.035569208223	5
0	7197	11505.963054440867	6
0	7200	11508.597131558335	5
0	7202	11512.404094766249	4
0	7204	11519.822311189426	5
0	7207	11520.633169955465	6
0	7210	11520.783982313538	5
0	7212	11527.082740039578	4
0	7214	11530.081264805417	5
0	7217	11536.139954803384	4
0	7219	11545.204812837037	3
0	7221	11551.840284605564	4
0	7224	11553.559824044708	5
0	7227	11554.187206351704	6
0	7230	11558.335271226716	5
0	7232	11563.198211178591	4
0	7234	11565.009307532555	3
0	7236	11569.177518765617	4
0	7239	11569.263153242797	5
0	7242	11571.896547326188	6
0	7245	11575.708022675865	7
0	7248	11576.880265544782	6
0	7250	11579.787992130152	7
0	7253	11581.542079638339	6
0	7255	11581.861416950481	7
0	7258	11581.990096983532	8
0	7260	11584.146700861474	9
0	7262	11587.935622678083	8
0	7265	11591.822514178151	7
0	7268	11592.99499387271	6
0	7270	11597.685558344978	7
0	7273	11607.819877604774	6
0	7275	11609.722396982831	7
0	7278	11620.621382857906	8
0	7280	11620.864965174033	9
0	7282	11627.474638186155	10
0	7284	11633.212872832852	9
0	7287	11633.418186206205	8
0	7290	11643.332559538862	9
0	7292	11644.998365929972	8
0	7295	11645.133351781946	9
0	7297	11649.984076157663	10
0	7299	11655.249051232747	11
0	7301	11657.456226721224	12
0	7303	11659.24933320999	11
0	7306	11660.670904746485	10
0	7309	11668.298940906329	9
0	7312	11673.075809715405	8
0	7315	11679.869518750373	7
0	7318	11683.733951740413	6
0	7320	11686.913192106506	7
0	7323	11694.613666338212	6
0	7325	11704.097328645798	5
0	7327	11704.819654273366	4
0	7329	11705.583078227414	3
0	7331	11709.244520702007	4
0	7334	11712.307059201491	5
0	7337	11719.783222888301	4
0	7339	11733.362001878668	3
0	7341	11735.015997035074	4
0	7344	11744.31657950502	3
0	7346	11745.044028028847	2
0	7348	11747.097057539981	3
0	7351	11753.617384956895	2
0	7353	11754.762664449264	1
0	7355	11760.244531067425	0
0	7357	11771.532179179442	1
0	7360	11773.949435765487	0
0	7362	11782.86277947747	1
0	7365	11787.683364757105	2
0	7368	11794.089225808782	1
0	7370	11806.645777507732	0
0	7372	11808.489361422783	1
0	7375	11809.533256597289	0
0	7377	11810.560314020664	1
0	7380	11811.772855335481	0
0	7382	11821.352770950347	1
0	7385	11821.411712731996	0
0	7387	11854.633528791702	1
0	7390	11863.965545484797	2
0	7393	11869.3177982614	3
0	7396	11872.974617794872	2
0	7398	11873.638284645277	1
0	7400	11874.296961953967	2
0	7403	11875.887196623895	3
0	7406	11879.419715546594	4
0	7409	11880.395639985862	3
0	7411	11884.04988356092	2
0	7413	11885.891014378903	3
0	7416	11886.037645869852	4
0	7419	11888.183661238055	5
0	7422	11889.458666265295	4
0	7424	11890.861547392181	5
0	7427	11898.426353066936	6
0	7430	11899.685985275324	5
0	7432	11901.805905886667	6
0	7435	11902.990228217477	7
0	7438	11908.04634922826	8
0	7440	11911.086780383884	7
0	7443	11912.304154153986	8
0	7445	11913.481840799191	7
0	7448	11918.087674515996	6
0	7450	11918.093460391115	5
0	7452	11920.133327756193	4
0	7454	11921.831594692263	5
0	7457	11922.67629183282	6
0	7460	11923.722560510095	5
0	7462	11931.37451089951	6
0	7465	11931.628683242367	5
0	7467	11931.673208801528	4
0	7469	11934.109811188918	5
0	7472	11942.765638699037	6
0	7475	11944.434239514309	7
0	7478	11951.124244798406	6
0	7480	11955.880620338504	7
0	7483	11958.537680834538	8
0	7485	11960.382858551623	7
0	7488	11965.542445189765	8
0	7490	11966.993944968478	9
0	7492	11971.917913049389	10
0	7494	11975.858417989492	11
0	7496	11977.620173479883	10
0	7499	11978.681820990508	9
0	7502	11979.224990669911	8
0	7505	11979.487222224382	7
0	7508	11981.398670373117	6
0	7510	11987.381147370806	7
0	7513	11987.663654723524	8
0	7515	11994.092802198079	7
0	7518	11996.610713995314	6
0	7520	11998.672809270028	5
0	7522	11999.369549648379	6
0	7525	12001.828753624668	7
0	7528	12004.729741768788	8
0	7530	12005.518902902115	7
0	7533	12015.231852502416	6
0	7535	12015.690152234493	5
0	7537	12016.471729737188	4
0	7539	12017.963917772302	3
0	7541	12037.958331154933	2
0	7543	12041.782005843875	3
0	7546	12041.898227901041	4
0	7549	12053.147204156991	5
0	7552	12060.907761288813	4
0	7554	12061.985060607302	5
0	7557	12064.846132982616	4
0	7559	12072.153807479551	3
0	7561	12081.370047243913	4
0	7564	12084.735194860043	5
0	7567	12085.707144704611	4
0	7569	12090.437032351086	5
0	7572	12097.963462350932	4
0	7574	12107.018464391354	5
0	7577	12108.730520134089	6
0	7580	12108.979125229723	5
0	7582	12114.0829096841	4
0	7584	12119.577830670143	5
0	7587	12128.07892195466	4
0	7589	12128.354607376136	5
0	7592	12131.583581612922	6
0	7595	12134.848540198585	7
0	7598	12135.907929262861	8
0	7600	12139.173689614265	9
0	7602	12139.974400679893	8
0	7605	12143.359353490505	9
0	7607	12153.619091651586	8
0	7610	12155.508680832859	9
0	7612	12166.917002603289	8
0	7615	12167.651102614941	7
0	7618	12168.160063672873	8
0	7620	12168.318955699203	7
0	7623	12168.449785456006	6
0	7625	12170.775491241455	5
0	7627	12174.327692863932	4
0	7629	12182.029386086137	5
0	7632	12184.205723487306	4
0	7634	12185.423598442976	5
0	7637	12189.689744783113	6
0	7640	12189.707944638519	7
0	7643	12192.392481477277	6
0	7645	12196.48216289431	7
0	7648	12197.046992467297	8
0	7650	12197.222886601678	7
0	7653	12202.801909949669	8
0	7655	12206.23111297398	7
0	7658	12209.093065997628	6
0	7660	12212.062340785583	7
0	7663	12212.850322752014	6
0	7665	12216.400505646182	5
0	7667	12216.938603577066	6
0	7670	12217.848066840431	7
0	7673	12224.055600037739	6
0	7675	12227.075838211337	5
0	7677	12230.995492730474	4
0	7679	12232.717760797326	3
0	7681	12235.258835219823	2
0	7683	12238.71355264986	3
0	7686	12245.548062016005	4
0	7689	12251.59004100325	5
0	7692	12258.890154122807	4
0	7694	12260.96777471893	3
0	7696	12262.070945156905	4
0	7699	12264.017999864261	5
0	7702	12271.319695302086	4
0	7704	12277.510099518821	3
0	7706	12279.280172604339	4
0	7709	12279.786711684121	5
0	7712	12284.829085199054	4
0	7714	12294.493904832877	3
0	7716	12297.108749559192	2
0	7718	12311.556295128797	1
0	7720	12325.247295301123	2
0	7723	12326.954718103236	3
0	7726	12330.638105281049	4
0	7729	12331.446841839667	5
0	7732	12332.427406276611	4
0	7734	12337.032171677056	3
0	7736	12338.916908770672	4
0	7739	12340.255047836404	3
0	7741	12348.224207419201	4
0	7744	12348.394616027416	3
0	7746	12348.462991471265	4
0	7749	12352.840378909596	3
0	7751	12355.564119922769	4
0	7754	12360.157472476784	5
0	7757	12366.245843713155	6
0	7760	12366.323216724849	7
0	7763	12369.798880520159	8
0	7765	12377.358689123546	9
0	7767	12378.685205503431	8
0	7770	12383.900140784561	9
0	7772	12389.463609089123	8
0	7775	12394.678964107283	9
0	7777	12406.508752608462	10
0	7779	12406.662141809	9
0	7782	12407.482716124863	8
0	7785	12409.003521478994	9
0	7787	12414.291682794799	8
0	7790	12416.311987021603	7
0	7793	12416.516557421245	8
0	7795	12417.181280838426	7
0	7798	12418.80603500622	6
0	7800	12423.413047790176	5
0	7802	12432.850587607384	6
0	7805	12433.658010983489	7
0	7808	12435.678517492624	8
0	7810	12439.064659887055	9
0	7812	12441.368108202212	8
0	7815	12441.990099536893	7
0	7818	12449.342443547482	8
0	7820	12450.086569982064	7
0	7823	12453.769997001794	8
0	7825	12457.49770788031	9
0	7827	12458.282563633623	10
0	7829	12462.343956785435	9
0	7832	12462.798813634245	8
0	7835	12464.992539169908	9
0	7837	12465.950598507978	8
0	7840	12468.890792651291	7
0	7843	12470.46875378946	6
0	7845	12474.803184491199	5
0	7847	12475.190353955117	4
0	7849	12482.058882638787	5
0	7852	12491.071761998563	6
0	7855	12494.955698252712	5
0	7857	12494.986918164134	4
0	7859	12504.525275710231	5
0	7862	12505.2964398391	4
0	7864	12506.12437269373	3
0	7866	12507.654006233232	4
0	7869	12519.216872059662	5
0	7872	12520.034843128525	4
0	7874	12525.697410117616	5
0	7877	12526.362531621444	6
0	7880	12528.084549836732	7
0	7883	12529.039551564318	6
0	7885	12534.262093051116	5
0	7887	12534.618768762251	6
0	7890	12536.054179923609	7
0	7893	12538.274858511239	6
0	7895	12541.436635872779	7
0	7898	12549.077326046746	8
0	7900	12553.715455805174	9
0	7902	12559.754121809271	10
0	7904	12564.665630269696	9
0	7907	12566.938018471735	10
0	7909	12567.084550989679	11
0	7911	12569.691085737692	12
0	7913	12570.246562418065	13
0	7915	12571.178412688727	14
0	7917	12577.367411444933	15
0	7919	12584.719460619893	16
0	7921	12585.612518614643	15
0	7924	12587.421881628174	16
0	7926	12589.614852057377	17
0	7928	12589.686461218976	16
0	7931	12592.771673098573	15
0	7934	12592.955302206446	14
0	7937	12594.16739121122	13
0	7940	12595.305752175949	14
0	7942	12595.636048963812	15
0	7944	12596.84064782828	14
0	7947	12597.079117713771	13
0	7950	12597.802526951692	14
0	7952	12601.124109227169	15
0	7954	12601.597684091909	16
0	7956	12601.952520111151	17
0	7958	12606.228460983578	16
0	7961	12607.714299882827	15
0	7964	12611.244365730953	14
0	7967	12613.859980979574	13
0	7970	12614.994450854041	14
0	7972	12618.030637126894	13
0	7975	12618.909021719783	14
0	7977	12620.403690845217	15
0	7979	12632.025475122365	14
0	7982	12635.550980026743	15
0	7984	12636.06718448046	16
0	7986	12636.548707201484	15
0	7989	12642.866759652156	14
[...]
1	7346	11745.044028028847	0
1	7348	11747.097057539981	0
1	7351	11753.617384956895	0
1	7353	11754.762664449264	0
1	7355	11760.244531067425	0
1	7357	11771.532179179442	0
1	7360	11773.949435765487	0
1	7362	11782.86277947747	0
1	7365	11787.683364757105	0
1	7368	11794.089225808782	0
1	7370	11806.645777507732	0
1	7372	11808.489361422783	0
1	7375	11809.533256597289	0
1	7377	11810.560314020664	0
1	7380	11811.772855335481	0
1	7382	11821.352770950347	0
1	7385	11821.411712731996	0
1	7387	11854.633528791702	0
1	7390	11863.965545484797	0
1	7393	11869.3177982614	0
1	7396	11872.974617794872	0
1	7398	11873.638284645277	0
1	7400	11874.296961953967	0
1	7403	11875.887196623895	0
1	7406	11879.419715546594	0
1	7409	11880.395639985862	0
1	7411	11884.04988356092	0
1	7413	11885.891014378903	0
1	7416	11886.037645869852	0
1	7419	11888.183661238055	0
1	7422	11889.458666265295	0
1	7424	11890.861547392181	0
1	7427	11898.426353066936	0
1	7430	11899.685985275324	0
1	7432	11901.805905886667	0
1	7435	11902.990228217477	0
1	7438	11908.04634922826	1
1	7440	11911.086780383884	0
1	7443	11912.304154153986	1
1	7445	11913.481840799191	0
1	7448	11918.087674515996	0
1	7450	11918.093460391115	0
1	7452	11920.133327756193	0
1	7454	11921.831594692263	0
1	7457	11922.67629183282	0
1	7460	11923.722560510095	0
1	7462	11931.37451089951	0
1	7465	11931.628683242367	0
1	7467	11931.673208801528	0
1	7469	11934.109811188918	0
1	7472	11942.765638699037	0
1	7475	11944.434239514309	0
1	7478	11951.124244798406	0
1	7480	11955.880620338504	0
1	7483	11958.537680834538	1
1	7485	11960.382858551623	0
1	7488	11965.542445189765	1
1	7490	11966.993944968478	2
1	7492	11971.917913049389	3
1	7494	11975.858417989492	4
1	7496	11977.620173479883	3
1	7499	11978.681820990508	2
1	7502	11979.224990669911	1
1	7505	11979.487222224382	0
1	7508	11981.398670373117	0
1	7510	11987.381147370806	0
1	7513	11987.663654723524	1
1	7515	11994.092802198079	0
1	7518	11996.610713995314	0
1	7520	11998.672809270028	0
1	7522	11999.369549648379	0
1	7525	12001.828753624668	0
1	7528	12004.729741768788	1
1	7530	12005.518902902115	0
1	7533	12015.231852502416	0
1	7535	12015.690152234493	0
1	7537	12016.471729737188	0
1	7539	12017.963917772302	0
1	7541	12037.958331154933	0
1	7543	12041.782005843875	0
1	7546	12041.898227901041	0
1	7549	12053.147204156991	0
1	7552	12060.907761288813	0
1	7554	12061.985060607302	0
1	7557	12064.846132982616	0
1	7559	12072.153807479551	0
1	7561	12081.370047243913	0
1	7564	12084.735194860043	0
1	7567	12085.707144704611	0
1	7569	12090.437032351086	0
1	7572	12097.963462350932	0
1	7574	12107.018464391354	0
1	7577	12108.730520134089	0
1	7580	12108.979125229723	0
1	7582	12114.0829096841	0
1	7584	12119.577830670143	0
1	7587	12128.07892195466	0
1	7589	12128.354607376136	0
1	7592	12131.583581612922	0
1	7595	12134.848540198585	0
1	7598	12135.907929262861	1
1	7600	12139.173689614265	2
1	7602	12139.974400679893	1
1	7605	12143.359353490505	2
1	7607	12153.619091651586	1
1	7610	12155.508680832859	2
1	7612	12166.917002603289	1
1	7615	12167.651102614941	0
1	7618	12168.160063672873	1
1	7620	12168.318955699203	0
1	7623	12168.449785456006	0
1	7625	12170.775491241455	0
1	7627	12174.327692863932	0
1	7629	12182.029386086137	0
1	7632	12184.205723487306	0
1	7634	12185.423598442976	0
1	7637	12189.689744783113	0
1	7640	12189.707944638519	0
1	7643	12192.392481477277	0
1	7645	12196.48216289431	0
1	7648	12197.046992467297	1
1	7650	12197.222886601678	0
1	7653	12202.801909949669	1
1	7655	12206.23111297398	0
1	7658	12209.093065997628	0
1	7660	12212.062340785583	0
1	7663	12212.850322752014	0
1	7665	12216.400505646182	0
1	7667	12216.938603577066	0
1	7670	12217.848066840431	0
1	7673	12224.055600037739	0
1	7675	12227.075838211337	0
1	7677	12230.995492730474	0
1	7679	12232.717760797326	0
1	7681	12235.258835219823	0
1	7683	12238.71355264986	0
1	7686	12245.548062016005	0
1	7689	12251.59004100325	0
1	7692	12258.890154122807	0
1	7694	12260.96777471893	0
1	7696	12262.070945156905	0
1	7699	12264.017999864261	0
1	7702	12271.319695302086	0
1	7704	12277.510099518821	0
1	7706	12279.280172604339	0
1	7709	12279.786711684121	0
1	7712	12284.829085199054	0
1	7714	12294.493904832877	0
1	7716	12297.108749559192	0
1	7718	12311.556295128797	0
1	7720	12325.247295301123	0
1	7723	12326.954718103236	0
1	7726	12330.638105281049	0
1	7729	12331.446841839667	0
1	7732	12332.427406276611	0
1	7734	12337.032171677056	0
1	7736	12338.916908770672	0
1	7739	12340.255047836404	0
1	7741	12348.224207419201	0
1	7744	12348.394616027416	0
1	7746	12348.462991471265	0
1	7749	12352.840378909596	0
1	7751	12355.564119922769	0
1	7754	12360.157472476784	0
1	7757	12366.245843713155	0
1	7760	12366.323216724849	0
1	7763	12369.798880520159	1
1	7765	12377.358689123546	2
1	7767	12378.685205503431	1
1	7770	12383.900140784561	2
1	7772	12389.463609089123	1
1	7775	12394.678964107283	2
1	7777	12406.508752608462	3
1	7779	12406.662141809	2
1	7782	12407.482716124863	1
1	7785	12409.003521478994	2
1	7787	12414.291682794799	1
1	7790	12416.311987021603	0
1	7793	12416.516557421245	1
1	7795	12417.181280838426	0
1	7798	12418.80603500622	0
1	7800	12423.413047790176	0
1	7802	12432.850587607384	0
1	7805	12433.658010983489	0
1	7808	12435.678517492624	1
1	7810	12439.064659887055	2
1	7812	12441.368108202212	1
1	7815	12441.990099536893	0
1	7818	12449.342443547482	1
1	7820	12450.086569982064	0
1	7823	12453.769997001794	1
1	7825	12457.49770788031	2
1	7827	12458.282563633623	3
1	7829	12462.343956785435	2
1	7832	12462.798813634245	1
1	7835	12464.992539169908	2
1	7837	12465.950598507978	1
1	7840	12468.890792651291	0
1	7843	12470.46875378946	0
1	7845	12474.803184491199	0
1	7847	12475.190353955117	0
1	7849	12482.058882638787	0
1	7852	12491.071761998563	0
1	7855	12494.955698252712	0
1	7857	12494.986918164134	0
1	7859	12504.525275710231	0
1	7862	12505.2964398391	0
1	7864	12506.12437269373	0
1	7866	12507.654006233232	0
1	7869	12519.216872059662	0
1	7872	12520.034843128525	0
1	7874	12525.697410117616	0
1	7877	12526.362531621444	0
1	7880	12528.084549836732	0
1	7883	12529.039551564318	0
1	7885	12534.262093051116	0
1	7887	12534.618768762251	0
1	7890	12536.054179923609	0
1	7893	12538.274858511239	0
1	7895	12541.436635872779	0
1	7898	12549.077326046746	1
1	7900	12553.715455805174	2
1	7902	12559.754121809271	3
1	7904	12564.665630269696	2
1	7907	12566.938018471735	3
1	7909	12567.084550989679	4
1	7911	12569.691085737692	5
1	7913	12570.246562418065	6
1	7915	12571.178412688727	7
1	7917	12577.367411444933	8
1	7919	12584.719460619893	9
1	7921	12585.612518614643	8
1	7924	12587.421881628174	9
1	7926	12589.614852057377	10
1	7928	12589.686461218976	9
1	7931	12592.771673098573	8
1	7934	12592.955302206446	7
1	7937	12594.16739121122	6
1	7940	12595.305752175949	7
1	7942	12595.636048963812	8
1	7944	12596.84064782828	7
1	7947	12597.079117713771	6
1	7950	12597.802526951692	7
1	7952	12601.124109227169	8
1	7954	12601.597684091909	9
1	7956	12601.952520111151	10
1	7958	12606.228460983578	9
1	7961	12607.714299882827	8
1	7964	12611.244365730953	7
1	7967	12613.859980979574	6
1	7970	12614.994450854041	7
1	7972	12618.030637126894	6
1	7975	12618.909021719783	7
1	7977	12620.403690845217	8
1	7979	12632.025475122365	7
1	7982	12635.550980026743	8
1	7984	12636.06718448046	9
1	7986	12636.548707201484	8
1	7989	12642.866759652156	7
1	7992	12643.92906876297	8
1	7994	12645.782975568234	9
1	7996	12647.192802256562	10
1	7998	12652.352069094719	9
1	8001	12661.923895667714	10
1	8003	12663.293966129131	9
1	8006	12668.273752805922	8
1	8009	12669.054039471446	7
1	8012	12670.475790044602	8
1	8014	12676.901662785995	7
1	8017	12678.816111713829	6
1	8020	12682.097668113248	5
1	8023	12683.329477281228	6
1	8025	12684.295749590295	5
1	8028	12685.995278434446	4
1	8031	12693.725990198193	3
1	8034	12696.646085116461	2
1	8037	12699.092024929912	1
1	8040	12708.439225916547	0
1	8043	12711.702864904636	1
1	8045	12713.275673221871	0
1	8048	12714.054418823423	1
1	8050	12715.80230406354	2
1	8052	12715.966439521849	1
1	8055	12717.133572905857	2
1	8057	12730.481158667985	1
1	8060	12733.968622116184	0
1	8063	12734.124917336073	1
1	8065	12745.922055463826	2
1	8067	12746.503743403605	3
1	8069	12747.056942703765	4
1	8071	12748.003271233968	3
1	8074	12750.104779806674	4
1	8076	12752.051297492056	3
1	8079	12752.678548731555	4
1	8081	12756.742866736594	3
1	8084	12765.657204924568	2
1	8087	12773.827336240454	1
1	8090	12775.129532897366	2
1	8092	12778.904177094719	1
1	8095	12779.251645391513	0
1	8098	12779.489970911981	1
1	8100	12781.556636876493	2
1	8102	12781.667400912351	3
1	8104	12782.051439968197	4
1	8106	12783.608634140649	3
1	8109	12783.811644305705	2
1	8112	12786.913636195137	3
1	8114	12788.92270883649	2
1	8117	12797.205399799731	1
1	8120	12797.886878508863	0
1	8123	12800.242283600488	1
1	8125	12803.772630780413	2
1	8127	12806.016594646648	1
1	8130	12812.912113673896	0
1	8133	12817.210845472063	0
1	8135	12817.267239765029	0
1	8137	12823.116454198571	0
1	8140	12824.060542947763	0
1	8142	12831.262367633495	0
1	8144	12832.053727963777	0
1	8146	12833.368468996698	0
1	8149	12833.917608167322	0
1	8151	12836.83202054369	0
1	8153	12837.755385039142	0
1	8156	12840.090756917202	0
1	8158	12845.250280156783	0
1	8161	12845.802343938626	0
1	8164	12850.253205364553	0
1	8167	12855.594789464807	0
1	8170	12855.918975744346	0
1	8172	12862.962362785324	0
1	8174	12867.742471252125	0
1	8177	12889.394375042436	0
1	8180	12896.404017003087	0
1	8183	12896.981617924855	1
1	8185	12906.581316215238	2
1	8187	12909.703070322947	1
1	8190	12917.289253695075	2
1	8192	12925.498750092062	3
1	8194	12928.674780890937	2
1	8197	12932.944161269847	1
1	8200	12944.080108628961	0
1	8203	12944.92552476706	1
1	8205	12949.720574926355	2
1	8207	12951.801840664298	1
1	8210	12959.55271381648	0
1	8213	12965.052939358208	0
1	8215	12965.477683128863	0
1	8217	12967.951749892733	0
1	8219	12970.647004238238	0
1	8222	12970.893907415449	0
1	8224	12984.816090696346	0
1	8226	12988.549596658376	0
1	8229	12989.834438736844	0
1	8232	12990.189682446344	0
1	8234	12992.247768296012	0
1	8237	12995.363838479027	0
1	8240	12996.175615856502	0
1	8243	12997.526680773288	0
1	8245	12997.773605735223	0
1	8248	13003.671888255055	1
1	8250	13004.705820352392	2
1	8252	13011.39678104135	1
1	8255	13016.14569365478	0
1	8258	13019.600404092529	0
1	8260	13026.135462140528	0
1	8263	13027.347403335379	0
1	8265	13030.429203805265	0
1	8268	13035.025215644708	1
1	8270	13037.248215415011	0
1	8273	13039.607599449305	1
1	8275	13039.611922606224	0
1	8278	13044.288164453231	0
1	8280	13045.991458269102	0
1	8282	13046.91228021935	0
1	8285	13047.477668632552	0
1	8287	13052.256121869454	0
1	8290	13056.348522329841	0
1	8293	13058.072550768111	0
1	8295	13059.266465280607	0
1	8297	13063.617659207177	0
1	8300	13070.801296797235	0
1	8303	13071.84405631971	0
1	8305	13076.300303894477	0
1	8307	13077.135300622522	0
1	8309	13079.440003073233	0
1	8312	13086.742313209411	0
1	8315	13087.748690346085	0
1	8317	13088.4571134793	0
1	8319	13097.832298421024	0
1	8321	13103.943032514673	0
1	8324	13106.963076623441	0
1	8327	13115.564432451745	0
1	8330	13127.46700758557	0
1	8332	13137.095946981052	0
1	8335	13142.711661995849	0
1	8337	13153.666073127662	0
1	8340	13156.082450812056	0
1	8343	13159.490406076992	0
1	8345	13160.048245164388	0
1	8347	13160.302268603681	0
1	8350	13163.284216964922	0
1	8353	13164.931967592485	0
1	8355	13165.565704832283	0
1	8357	13170.340219642725	0
1	8360	13172.983575626836	0
1	8362	13174.423316070611	0
1	8364	13178.540017597253	0
1	8366	13181.392329824079	0
1	8369	13183.552914712261	0
1	8372	13187.371566252399	0
1	8375	13190.058052979979	0
1	8378	13195.739481609459	0
1	8380	13198.663079893066	0
1	8383	13199.392652093374	0
1	8385	13202.387503073419	0
1	8387	13203.009932115983	0
1	8389	13203.212088608273	0
1	8391	13203.343613652536	0
1	8394	13203.981762050053	0
1	8397	13204.435931892283	0
1	8400	13218.575357255473	0
1	8402	13218.718637787863	0
1	8405	13221.262349274307	0
1	8407	13221.597328156845	0
1	8410	13229.181720852925	0
1	8412	13230.871331969059	0
1	8415	13236.586693929915	0
1	8418	13241.534091586148	0
1	8420	13244.348683223977	0
1	8423	13253.218894911746	1
1	8425	13257.057468087831	2
1	8427	13264.180933922665	1
1	8430	13267.983137367337	0
1	8433	13274.142550830398	1
1	8435	13275.85592585071	2
1	8437	13276.542734941123	1
1	8440	13282.724481757954	2
1	8442	13285.585315446839	1
1	8445	13295.038159424037	2
1	8447	13299.61820478579	1
1	8450	13301.436933801331	0
1	8453	13304.173652410921	1
1	8455	13311.205647479236	2
1	8457	13311.527321806258	1
1	8460	13312.371079761159	2
1	8462	13313.193219304977	1
1	8465	13323.097347698311	0
1	8468	13323.590929332508	0
1	8470	13323.66049696103	0
1	8472	13334.853993903024	0
1	8474	13335.223051752146	0
1	8477	13336.334394729261	0
1	8479	13340.697328142081	0
1	8482	13347.977465371263	0
1	8484	13349.482593538865	0
1	8487	13350.834599834131	0
1	8490	13354.051318886648	0
1	8492	13359.235487389762	0
1	8495	13359.731154776604	0
1	8497	13361.187436840012	0
1	8499	13363.514243848591	0
1	8502	13366.485597643972	0
1	8505	13367.658221186369	0
1	8508	13368.084157368792	1
1	8510	13368.497464425752	0
1	8513	13372.381790963397	0
1	8515	13376.524529677444	0
1	8517	13381.599921224596	0
1	8520	13381.724485421269	0
1	8523	13383.562054600878	0
1	8525	13386.934910813731	0
1	8527	13392.731871994391	0
1	8530	13399.678850685614	0
1	8533	13401.051775717854	0
1	8535	13401.350707422143	0
1	8537	13407.63178702362	0
1	8539	13409.331153204115	0
1	8542	13409.92891727842	0
1	8545	13410.592107451252	0
1	8547	13413.066403300706	0
1	8549	13424.665488141588	0
1	8551	13424.991782195122	0
1	8554	13436.881352477986	0
1	8557	13439.100544001004	0
1	8559	13445.301851873614	0
1	8562	13446.324365785308	0
1	8565	13450.326338597101	0
1	8567	13451.590229813997	0
1	8570	13452.728171107325	0
1	8573	13456.457120976999	1
1	8575	13458.458086964633	0
1	8578	13458.752790869845	0
1	8580	13461.344281538447	0
1	8582	13465.504529120129	0
1	8584	13471.161638823322	0
1	8586	13482.257711368934	0
1	8589	13484.091423555028	0
1	8592	13488.936907270554	0
1	8594	13489.107552592878	0
1	8596	13492.288725021385	0
1	8599	13495.362775764768	0
1	8602	13501.468962734794	0
1	8605	13510.123030371931	0
1	8607	13511.486726474175	0
1	8610	13514.877600714452	0
1	8612	13520.099793063784	0
1	8614	13526.409683560913	0
1	8617	13527.065235057855	0
1	8620	13527.626918434796	0
1	8622	13537.896063812045	0
1	8624	13541.478860721606	0
1	8627	13542.944057854807	0
1	8630	13543.109621825095	0
1	8632	13550.780493323422	0
1	8634	13558.95264872102	0
1	8637	13560.719902172848	0
1	8639	13571.459928329144	0
1	8642	13572.926369234304	0
1	8644	13585.573116778623	0
1	8647	13588.677851303824	0
1	8649	13603.981293843365	0
1	8651	13605.500811400385	0
1	8654	13610.136194844866	0
1	8656	13612.0440419141	0
1	8659	13613.409021497169	0
1	8662	13615.35182957525	0
1	8665	13616.77626847462	0
1	8667	13621.540234443214	0
1	8670	13622.564201762598	0
1	8673	13625.884175319884	0
1	8675	13635.293351902969	0
1	8677	13642.903107252046	0
1	8679	13645.543940360483	0
1	8682	13648.611242801997	0
1	8685	13653.411225182685	0
1	8687	13667.450826548296	0
1	8690	13672.105698996698	0
1	8692	13675.934782237284	0
1	8694	13680.895607316993	0
1	8697	13682.931629836537	0
1	8700	13684.495959494538	0
1	8702	13687.406493247715	0
1	8704	13691.680906810431	0
1	8707	13707.423968058591	0
1	8709	13707.679896064028	0
1	8711	13708.764793632085	0
1	8714	13712.021018151477	0
1	8716	13717.797433040156	0
1	8718	13721.273392360704	0
1	8721	13722.125892289113	0
1	8723	13726.857279917688	0
1	8726	13727.570100308178	0
1	8729	13727.598983372676	0
1	8731	13733.826283998532	0
1	8734	13734.1148135479	0
1	8736	13747.530645086825	0
1	8739	13753.431440393061	0
1	8742	13754.733060198432	0
1	8745	13756.380737097995	0
1	8748	13760.359280686753	1
1	8750	13762.405321647164	2
1	8752	13763.30740669807	1
1	8755	13764.354327799356	2
1	8757	13764.943670011184	1
1	8760	13780.758790262165	2
1	8762	13781.057538007943	3
1	8764	13781.874538952468	2
1	8767	13782.859758630101	3
1	8769	13782.95434599807	2
1	8772	13784.126098848915	1
1	8775	13791.216312638693	2
1	8777	13805.613088729985	1
1	8780	13806.604868709094	0
1	8783	13814.229754573728	0
1	8785	13822.671516762635	0
1	8788	13823.006446871527	1
1	8790	13827.062863166894	2
1	8792	13827.311557051481	3
1	8794	13827.434319525567	2
1	8797	13834.159132166931	3
1	8799	13835.694355328445	2
1	8802	13839.255900254581	1
1	8805	13844.487050865637	2
1	8807	13849.700662057211	1
1	8810	13859.49346130662	0
1	8813	13867.165906404714	1
1	8815	13868.580441773152	0
1	8818	13869.361462598649	0
1	8820	13871.742427345352	0
1	8822	13874.878420291422	0
1	8824	13878.384281096387	0
1	8827	13887.515688971721	0
1	8829	13887.969104774109	0
1	8832	13889.411745685206	0
1	8835	13902.122733763623	0
1	8837	13904.369878480591	0
1	8840	13904.450395196844	0
1	8842	13909.119564720627	0
1	8844	13915.792986495333	0
1	8847	13916.7100773151	0
1	8850	13918.982194605177	0
1	8852	13925.303244260554	0
1	8854	13929.56597238015	0
1	8856	13944.892513462184	0
1	8859	13970.319176759444	0
1	8862	13975.838349089176	0
1	8865	13983.462943624443	0
1	8867	13989.780277623541	0
1	8869	13996.101032572925	0
1	8871	13999.503741534398	0
1	8874	14000.21551058041	0
1	8877	14003.491518921026	0
1	8879	14004.142152738429	0
1	8882	14006.28214619115	0
1	8885	14009.483482554686	0
1	8887	14013.336801313544	0
1	8889	14013.94806093934	0
1	8892	14014.662558585547	0
1	8895	14022.766496500923	0
1	8898	14027.75224462235	1
1	8900	14029.277408808072	0
1	8903	14030.660451266515	0
1	8905	14034.166818208414	0
1	8907	14043.634087639954	0
1	8909	14060.108706319	0
1	8911	14066.263096172594	0
1	8913	14068.414515004002	0
1	8916	14071.786201074232	0
1	8919	14075.812303717809	0
1	8922	14076.725641557032	0
1	8924	14080.595151879026	0
1	8927	14089.016896375236	0
1	8930	14093.183040013637	0
1	8932	14098.315518368744	0
1	8935	14098.904917009239	0
1	8937	14107.961921795728	0
1	8939	14110.212512826246	0
1	8941	14129.368706564047	0
1	8944	14133.022763146747	0
1	8947	14142.278843328788	0
1	8950	14144.112985300162	0
1	8952	14145.657434949314	0
1	8955	14147.255895033598	0
1	8958	14149.834103959884	1
1	8960	14154.126810055284	0
1	8963	14159.170032802766	0
1	8965	14165.425766671563	0
1	8968	14166.29177212674	0
1	8970	14167.499739151101	0
1	8973	14167.613569166412	1
1	8975	14167.672436204528	0
1	8978	14172.312099420938	1
1	8980	14173.469553897608	0
1	8983	14183.071839292032	1
1	8985	14185.09313402047	0
1	8988	14187.038577570076	1
1	8990	14187.042025022968	0
1	8993	14189.389270410696	1
1	8995	14191.800475362682	2
1	8997	14196.537302842762	1
1	9000	14201.681128107623	2
1	9002	14206.095368501861	3
1	9004	14214.632735394369	4
1	9006	14220.290883597124	3
1	9009	14220.366973777156	4
1	9011	14221.133887703489	5
1	9013	14221.167369508182	4
1	9016	14226.660402328996	3
1	9019	14227.408631791484	2
1	9022	14229.138456407696	3
1	9024	14229.626402704033	4
1	9026	14233.225793795986	5
1	9028	14242.452877903565	4
1	9031	14248.066754718094	3
1	9034	14248.919461509923	4
1	9036	14253.276479980321	5
1	9038	14254.13834670865	6
1	9040	14254.254765922897	7
1	9042	14265.465341462206	8
1	9044	14270.375537206764	7
1	9047	14277.786337920978	6
1	9050	14278.47522222537	5
1	9053	14279.902408190039	6
1	9055	14281.771871533903	7
1	9057	14284.810702798573	6
1	9060	14285.437124623979	7
1	9062	14286.507015643112	6
1	9065	14292.447193690161	7
1	9067	14293.841235101509	8
1	9069	14296.959660103904	7
1	9072	14299.62285408783	6
1	9075	14315.069097706099	7
1	9077	14316.281132355247	8
1	9079	14317.114108667252	7
1	9082	14318.769400042679	8
1	9084	14320.466598078842	9
1	9086	14321.592960819965	10
1	9088	14321.971069349033	11
1	9090	14325.583767699868	12
1	9092	14327.96847660991	11
1	9095	14328.953338880876	10
1	9098	14338.097045425385	11
1	9100	14344.767606496106	12
1	9102	14348.284639534414	11
1	9105	14351.384276292137	10
1	9108	14361.091011266064	11
1	9110	14362.16212107295	10
1	9113	14367.121318037197	9
1	9116	14373.731516843876	8
1	9119	14375.379279191321	7
1	9122	14379.079734564267	6
1	9125	14380.279297124574	5
1	9128	14381.32529295345	4
1	9131	14384.59081484019	3
1	9134	14392.63380471127	2

