version 2
run POLICY_1-3-20191213-12:40:09-1214
attr configname POLICY_1
attr datetime 20191213-12:40:09
attr experiment POLICY_1
attr inifile omnetpp.ini
attr iterationvars ""
attr iterationvarsf ""
attr measurement ""
attr network Carrefour
attr processid 1214
attr repetition 3
attr replication #3
attr resultdir results
attr runnumber 3
attr seedset 3
param **.policy 1
param **.delta 0s
param **.tillsNumber 7
param **.capacity 0.3
param **.meanInterArrivalTime 8s
param **.meanItemsInACart 12
param **.interArrivalDistribution 0
param **.itemsInCartDistribution 0

vector 0 Carrefour.decider stats_numCustomers:vector ETV
attr "" ""
attr source numCustomers
vector 1 Carrefour.decider stats_numCustomersQueue:vector ETV
attr "" ""
attr source numCustomersQueue
0	676	1203.043089049149	4
0	679	1210.882708772919	3
0	681	1217.029622314118	4
0	684	1223.450726876627	5
0	687	1232.647357144307	6
0	690	1239.033221678943	7
0	693	1240.233031928064	8
0	695	1245.220667337808	9
0	697	1249.021639338895	8
0	700	1254.928141585804	9
0	702	1258.823508653299	10
0	704	1259.30862259698	11
0	706	1260.091912641731	10
0	709	1263.49595736527	11
0	711	1265.208094746236	12
0	713	1265.713491918964	11
0	716	1267.893550239708	12
0	718	1269.336033172438	11
0	721	1275.621545982411	10
0	724	1276.001403378376	9
0	727	1277.239682473491	8
0	730	1278.50371380878	7
0	733	1281.258951155449	6
0	735	1284.105236724621	5
0	737	1288.593719868212	6
0	740	1288.600542619139	7
0	743	1292.755471297283	8
0	745	1296.132657312023	7
0	748	1297.317413459155	8
0	750	1298.601501301215	9
0	752	1300.871422252048	8
0	755	1305.682484295517	9
0	757	1306.759304187354	8
0	760	1312.707371770551	7
0	763	1314.855342142989	8
0	765	1315.208224468755	7
0	768	1316.72523258886	6
0	770	1320.773592922372	7
0	773	1321.968152923581	6
0	775	1322.201715374746	7
0	778	1329.542900838053	6
0	780	1331.346878529339	7
0	783	1332.671858061186	6
0	785	1336.46130609511	5
0	787	1339.704992116328	6
0	790	1340.443663381027	7
0	793	1342.447035527346	6
0	795	1342.762356051758	7
0	798	1343.088287681601	6
0	800	1345.637820573635	5
0	802	1347.680631828127	4
0	804	1350.694960447143	5
0	807	1351.0330071009	6
0	810	1352.64435013393	5
0	812	1352.750838482242	4
0	814	1362.96680139677	3
0	816	1363.12670967038	4
0	819	1372.133981887585	3
0	821	1386.903743389604	2
0	823	1388.626230917823	3
0	826	1390.378069733318	4
0	829	1390.926189170062	5
0	832	1396.186057414498	6
0	835	1401.341914302901	5
0	837	1401.941004152434	6
0	840	1405.717839443964	7
0	843	1409.057694740281	8
0	845	1409.448549505425	9
0	847	1417.975139186714	8
0	850	1418.079257853417	9
0	852	1421.120881126346	10
0	854	1422.636740338027	9
0	857	1426.541180381584	8
0	860	1435.276281493477	7
0	863	1436.006020061914	8
0	865	1444.385738715094	9
0	867	1447.330901485365	8
0	870	1450.026557766983	7
0	873	1451.79377184835	8
0	875	1454.163905136716	9
0	877	1459.848150604134	8
0	880	1461.242506986346	9
0	882	1463.675100842997	8
0	885	1466.072722802552	9
0	887	1467.068462777585	10
0	889	1468.186264983107	11
0	891	1468.632914891991	10
0	894	1471.955714048517	9
0	897	1474.890662744512	8
0	900	1478.101692455353	9
0	902	1487.379188052605	8
0	905	1490.719622818138	7
0	908	1495.061627744856	8
0	910	1495.517903134518	7
0	913	1496.892137080972	8
0	915	1497.178117676112	7
0	918	1501.536275075064	6
0	920	1508.622308087293	5
0	922	1515.824506732507	4
0	924	1534.694504109347	5
0	927	1536.429155152599	4
0	929	1537.343671653069	3
0	931	1540.08703195181	4
0	934	1540.888686491515	5
0	937	1541.187049959847	6
0	940	1551.802515994392	5
0	942	1552.156100004065	4
0	944	1553.319740291011	5
0	947	1553.838363053792	4
0	949	1556.351146483173	5
0	952	1559.420005719107	6
0	955	1559.591171179539	5
0	957	1564.083828414751	4
0	959	1575.323976515988	5
0	962	1579.152311370279	4
0	964	1579.902588726736	5
0	967	1586.442601945274	6
0	970	1595.11770590183	7
0	973	1595.657511014338	6
0	975	1599.32753165437	5
0	977	1601.44745307718	6
0	980	1601.484455852471	5
0	982	1604.563973782038	6
0	985	1608.232681679702	7
0	988	1608.431216545291	8
0	990	1618.087698089702	7
0	993	1620.958369631144	6
0	995	1622.520593773777	7
0	998	1623.154903448166	6
0	1000	1630.429175828261	5
0	1002	1632.20567710748	6
0	1005	1634.79326157269	7
0	1008	1647.541974259901	8
0	1010	1647.5693671805	7
0	1013	1648.616246796753	8
0	1015	1649.185610601724	7
0	1018	1649.663880143029	8
0	1020	1649.874493082912	7
0	1023	1649.929107906484	6
0	1025	1656.282450046167	7
0	1028	1660.155360645855	6
0	1030	1660.419686906356	5
0	1032	1663.255415852584	4
0	1034	1671.507253648395	5
0	1037	1672.198508714184	4
0	1039	1673.995831033002	5
0	1042	1674.901624397032	4
0	1044	1693.003147629852	5
0	1047	1704.937628782088	6
0	1050	1706.636103980815	5
0	1052	1706.70202724314	6
0	1055	1708.144329032134	5
0	1057	1708.28384514349	6
0	1060	1709.012875550849	7
0	1063	1714.598789708652	6
0	1065	1721.245207051835	7
0	1068	1727.54162926457	6
0	1070	1737.430385382421	7
0	1073	1737.717141866347	6
0	1075	1744.92225783471	7
0	1078	1745.105002058476	6
0	1080	1750.057803569016	5
0	1082	1752.783576547034	4
0	1084	1758.410124423798	5
0	1087	1758.751287626014	6
0	1090	1761.649191312876	7
0	1093	1765.000258945118	6
0	1095	1766.183475706798	5
0	1097	1768.240253619656	6
0	1100	1768.448183724468	7
0	1103	1770.732146384258	6
0	1105	1771.277732995524	5
0	1107	1775.567700659609	4
0	1109	1777.272465679932	5
0	1112	1778.654605875188	4
0	1114	1780.216927894172	3
0	1116	1786.529626416673	2
0	1118	1786.849408540991	1
0	1120	1788.674032815761	2
0	1123	1810.969819440429	3
0	1126	1819.116110697922	4
0	1129	1819.860783947749	3
0	1131	1831.450563850481	4
0	1134	1838.099371200093	5
0	1137	1849.203513050142	6
0	1140	1852.127569665243	5
0	1142	1856.552462727747	4
0	1144	1868.422360108862	5
0	1147	1873.92049168967	6
0	1150	1878.099109113118	5
0	1152	1880.506107745658	4
0	1154	1882.152233564557	3
0	1156	1882.953805427613	4
0	1159	1883.303184693492	5
0	1162	1884.54880009562	4
0	1164	1885.971378988884	5
0	1167	1888.439222253673	4
0	1169	1896.44834828501	3
0	1171	1899.551741473015	4
0	1174	1904.334375811519	5
0	1177	1904.444114945341	6
0	1180	1908.615337229233	5
0	1182	1928.135127249892	4
0	1184	1934.332551402465	3
0	1186	1943.357553761429	4
0	1189	1947.387872735348	3
0	1191	1949.041944839507	2
0	1193	1949.746347554759	3
0	1196	1950.224396541966	2
0	1198	1952.081019114318	3
0	1201	1958.773405517662	4
0	1204	1962.229183009484	3
0	1206	1976.074873198032	4
0	1209	1977.033419044767	5
0	1212	1980.414400749775	6
0	1215	1980.933066526622	7
0	1218	1981.706767550586	6
0	1220	1982.183529085083	5
0	1222	1983.589319896269	6
0	1225	1987.844637518231	5
0	1227	1990.207758227973	4
0	1229	1990.429459337453	5
0	1232	1998.713454351624	4
0	1234	2000.104956534843	5
0	1237	2005.421205234352	6
0	1240	2008.890918351554	7
0	1243	2010.261088006145	6
0	1245	2010.288587056024	5
0	1247	2011.760587001239	6
0	1250	2012.141293882967	7
0	1253	2012.466166338854	8
0	1255	2013.741974559848	7
0	1258	2016.361875167745	8
0	1260	2021.728778926211	7
0	1263	2024.400537027286	8
0	1265	2032.206082766897	7
0	1268	2036.481349010651	6
0	1270	2036.888668214336	7
0	1273	2037.950847846513	8
0	1275	2042.567922508612	7
0	1278	2044.561979944029	6
0	1280	2045.730582155699	5
0	1282	2057.082593580691	6
0	1285	2057.175983321549	7
0	1288	2057.747562879223	8
0	1290	2060.338642972036	9
0	1292	2061.781359774806	8
0	1295	2069.191244256645	7
0	1298	2069.310201733657	6
0	1300	2069.384387536915	5
0	1302	2069.905054277067	4
0	1304	2077.894564307044	3
0	1306	2083.680373396034	4
0	1309	2085.501166977571	3
0	1311	2086.551455780642	4
0	1314	2089.179168693206	5
0	1317	2090.769875637722	6
0	1320	2099.161815277031	5
0	1322	2104.431579554257	6
0	1325	2104.986191244202	7
0	1328	2105.236980601489	8
0	1330	2113.234155826031	7
0	1333	2117.32219442456	8
0	1335	2129.83523332	7
0	1338	2131.162435751908	8
0	1340	2135.259026625914	9
0	1342	2136.536312350884	8
0	1345	2144.708411568177	7
0	1348	2145.172819271955	8
0	1350	2147.429758296209	9
0	1352	2162.6629258835	10
0	1354	2167.406068740743	9
0	1357	2168.597797482936	10
0	1359	2168.954611097099	11
0	1361	2171.309425955223	12
0	1363	2176.964974194289	13
0	1365	2184.667961937427	12
0	1368	2185.135284476525	11
0	1371	2187.345395481432	10
0	1374	2192.244372048875	11
0	1376	2192.505436260299	10
0	1379	2194.103511698514	11
0	1381	2194.553439370109	10
0	1384	2199.389006990732	11
0	1386	2209.897950699832	12
0	1388	2214.429908889832	11
0	1391	2217.705213950076	12
0	1393	2219.856653150232	11
0	1396	2225.985695970818	12
0	1398	2226.141013095338	11
0	1401	2236.24672088203	10
0	1404	2242.068446648151	9
0	1407	2249.267817888527	8
0	1410	2253.073394644605	7
0	1413	2253.139723468406	6
0	1415	2254.520407025061	5
0	1417	2254.902553500914	6
0	1420	2258.055917879893	5
0	1422	2267.168445295148	6
0	1425	2270.673354224256	7
0	1428	2275.152377315318	8
0	1430	2276.065775844203	7
0	1433	2277.187858130607	8
0	1435	2279.764409829694	7
0	1438	2280.393910964722	6
0	1440	2280.406040329892	5
0	1442	2285.146681020933	6
0	1445	2286.978649478343	5
0	1447	2290.235312354987	4
0	1449	2298.108557515939	3
0	1451	2309.832136052719	2
0	1453	2315.944253624446	3
0	1456	2319.432702217738	4
0	1459	2319.762719954221	3
0	1461	2326.508605366411	4
0	1464	2335.551153175601	3
0	1466	2342.049274280621	2
0	1468	2351.079942263709	3
0	1471	2367.205792638108	2
0	1473	2369.032594496899	1
0	1475	2383.078643091898	2
0	1478	2384.913503652381	1
0	1480	2390.740382421118	2
0	1483	2393.369836116923	1
0	1485	2418.444814600623	2
0	1488	2423.841057988118	3
0	1491	2430.317648289874	2
0	1493	2433.610116593089	3
0	1496	2435.979947335671	4
0	1499	2436.136556753658	5
0	1502	2436.918487000342	4
0	1504	2438.299187801845	5
0	1507	2445.890327165202	6
0	1510	2451.789057769568	7
0	1513	2454.085813539995	8
0	1515	2458.937780463929	7
0	1518	2461.76739232265	6
0	1520	2462.557140949078	5
0	1522	2462.957369047745	6
0	1525	2463.097715285136	5
0	1527	2464.066278389796	6
0	1530	2465.310756540851	5
0	1532	2468.053221032458	4
0	1534	2470.449160300963	5
0	1537	2474.098106623753	6
0	1540	2476.230332973372	5
0	1542	2477.940294674996	6
0	1545	2479.726378168929	7
0	1548	2480.200812110059	6
0	1550	2483.791565917001	5
0	1552	2485.235885919826	4
0	1554	2487.988682638725	5
0	1557	2494.040507325505	4
0	1559	2497.525407571466	3
0	1561	2499.509832554596	2
0	1563	2499.624631498637	3
0	1566	2513.846815473779	2
0	1568	2517.869389760887	3
0	1571	2523.686363519994	2
0	1573	2539.636184062607	3
0	1576	2541.226479095563	2
0	1578	2545.471500414435	3
0	1581	2545.685558022963	4
0	1584	2562.729578115788	5
0	1587	2565.095976077603	6
0	1590	2566.818058287227	7
0	1593	2567.243509251758	6
0	1595	2569.294187111216	7
0	1598	2572.270898546174	6
0	1600	2573.79150491439	5
0	1602	2583.192421507717	6
0	1605	2584.420687155423	7
0	1608	2587.553165659557	8
0	1610	2597.165656496522	7
0	1613	2601.045415310673	6
0	1615	2611.762583017688	7
0	1618	2621.213067270555	8
0	1620	2622.893106801922	7
0	1623	2623.489091758461	8
0	1625	2630.849196973254	7
0	1628	2633.181600338352	8
0	1630	2635.391662320457	7
0	1633	2636.704365704502	8
0	1635	2647.437240253827	7
0	1638	2649.193939098495	8
0	1640	2649.595356431927	9
0	1642	2651.486983870486	10
0	1644	2653.662825621321	11
0	1646	2654.221644924722	10
0	1649	2662.222454242724	11
0	1651	2679.375131177258	12
0	1653	2694.430333742832	11
0	1656	2695.231581626865	10
0	1659	2698.982109121758	11
0	1661	2701.645962198587	10
0	1664	2706.281812537592	9
0	1667	2709.958564359061	8
0	1670	2711.698685985689	7
0	1673	2712.666419427643	6
0	1675	2724.019893430263	5
0	1677	2725.67280876237	6
0	1680	2727.764453707568	7
0	1683	2732.856435333155	6
0	1685	2734.677722581301	5
0	1687	2736.302009828653	6
0	1690	2736.775196775408	7
0	1693	2739.592803454167	8
0	1695	2740.440388695061	7
0	1698	2741.494587905527	6
0	1700	2742.337248484164	7
0	1703	2742.826602400549	8
0	1705	2747.479340405435	7
0	1708	2747.525317987781	8
0	1710	2749.761189333223	7
0	1713	2756.661650937313	6
0	1715	2763.511838018858	7
0	1718	2763.575458443158	8
0	1720	2764.924141659632	9
0	1722	2771.42013472847	8
0	1725	2772.056364936832	7
0	1728	2772.656621317467	6
0	1730	2776.740705463898	7
0	1733	2779.253440577107	8
0	1735	2781.331368752798	9
0	1737	2781.680472205661	8
0	1740	2787.68757642719	9
0	1742	2788.707288655642	8
0	1745	2791.667778741289	7
0	1748	2797.251795619388	8
0	1750	2797.331062836308	7
0	1753	2799.577581799991	8
0	1755	2804.646752280304	7
0	1758	2807.473085670175	6
0	1760	2810.826286692092	5
0	1762	2812.710377557508	4
0	1764	2813.679898872204	5
0	1767	2815.231357545041	4
0	1769	2821.398848807505	3
0	1771	2828.577942505961	4
0	1774	2834.88232923975	5
0	1777	2835.338134268179	4
0	1779	2840.463023577084	5
0	1782	2842.888927532797	4
0	1784	2845.534254386319	3
0	1786	2846.059217156648	4
0	1789	2846.397365985936	3
0	1791	2851.36310075891	4
0	1794	2852.62656666908	5
0	1797	2860.213466814272	4
0	1799	2870.387020722716	3
0	1801	2871.479402536528	4
0	1804	2875.502582604313	3
0	1806	2876.20993302715	2
0	1808	2880.943641151636	3
0	1811	2883.254572737278	2
0	1813	2896.196627890542	1
0	1815	2900.689773440574	2
0	1818	2902.933739938114	3
0	1821	2905.146386773398	4
0	1824	2909.595422276371	5
0	1827	2909.746984066528	6
0	1830	2913.525353954463	5
0	1832	2916.579197609385	4
0	1834	2917.851234625301	5
0	1837	2926.404130429695	4
0	1839	2926.727561621327	5
0	1842	2927.771969356953	6
0	1845	2929.205527461868	5
0	1847	2930.295831995863	6
0	1850	2943.825949515345	5
0	1852	2945.281854848215	4
0	1854	2950.268071172449	3
0	1856	2951.869662502163	2
0	1858	2954.854990217522	3
0	1861	2954.970268450579	4
0	1864	2956.371184926493	3
0	1866	2959.348543535427	4
0	1869	2960.165960637304	5
0	1872	2964.941027666195	6
0	1875	2968.58981965379	5
0	1877	2969.282829465133	6
0	1880	2971.291756379363	7
0	1883	2972.319408831766	8
0	1885	2973.570051577812	9
0	1887	2973.871793289212	8
0	1890	2975.426405876596	9
0	1892	2978.5541167896	8
0	1895	2983.075343878047	7
0	1898	2985.535183982707	6
0	1900	2986.348822615034	7
0	1903	2997.282496681133	8
0	1905	2999.722436679378	7
0	1908	3004.797614032082	6
0	1910	3005.198152340375	5
0	1912	3012.561210830687	6
0	1915	3017.427072088322	7
0	1918	3022.083323473241	8
0	1920	3023.047203649909	9
0	1922	3023.154800799738	8
0	1925	3025.46146373086	9
0	1927	3027.401335418284	10
0	1929	3028.218963688291	11
0	1931	3041.723955221943	10
0	1934	3045.532401206323	9
0	1937	3047.146801757314	8
0	1940	3049.520892850385	9
0	1942	3050.030054466492	10
0	1944	3050.093463104047	11
0	1946	3051.223838779262	12
0	1948	3052.56670453255	11
0	1951	3058.468484454328	10
0	1954	3059.438753550044	11
0	1956	3065.329928355077	10
0	1959	3080.437404765475	9
0	1962	3082.339538665709	8
0	1965	3082.56329264643	7
0	1968	3082.637547301317	6
0	1970	3084.16746556187	7
0	1973	3087.604288840252	6
0	1975	3092.444964104783	7
0	1978	3100.235588096844	6
0	1980	3101.623308912116	5
0	1982	3104.811006047675	6
0	1985	3112.928882885833	5
0	1987	3113.93276491107	6
0	1990	3117.032961125941	7
0	1993	3123.937870627334	8
0	1995	3126.175019395739	7
0	1998	3127.20695381988	6
0	2000	3128.443745304459	7
0	2003	3130.989689539628	6
0	2005	3140.723147682126	7
0	2008	3141.027125824367	6
0	2010	3144.857266186511	5
0	2012	3146.680962245961	6
0	2015	3157.064036874176	5
0	2017	3160.062105054641	4
0	2019	3160.481870661441	5
0	2022	3167.136648963489	6
0	2025	3167.682300630345	5
0	2027	3169.401863972007	4
0	2029	3171.574557009449	3
0	2031	3172.798532580324	2
0	2033	3175.463079833832	3
0	2036	3175.710915067837	2
0	2038	3188.073002875418	3
0	2041	3189.657095411885	4
0	2044	3190.590564234546	5
0	2047	3200.955556548442	6
0	2050	3201.312982209094	5
0	2052	3204.154067120395	4
0	2054	3205.761275806383	5
0	2057	3208.441836950177	6
0	2060	3214.895397803119	7
0	2063	3224.847552416182	6
0	2065	3225.082180351807	5
0	2067	3229.63021973746	6
0	2070	3243.735402428719	5
0	2072	3249.186408573445	6
0	2075	3249.202914187815	5
0	2077	3250.395994174975	4
0	2079	3255.941279362631	5
0	2082	3256.108033049932	4
0	2084	3264.693966648553	3
0	2086	3276.559300316805	4
0	2089	3277.272290202855	5
0	2092	3282.487699617214	6
0	2095	3282.915862181414	5
0	2097	3283.618530264367	4
0	2099	3284.092415130123	3
0	2101	3291.528263841115	2
0	2103	3291.923347364075	1
0	2105	3301.836355117972	2
0	2108	3302.780019252296	3
0	2111	3303.330648199939	2
0	2113	3307.745975189459	3
0	2116	3317.431021121322	4
0	2119	3320.454906322019	3
0	2121	3339.540389568393	2
0	2123	3340.335149126339	3
0	2126	3345.967071761924	4
0	2129	3346.297751153412	5
0	2132	3347.190631317171	6
0	2135	3348.100057792718	7
0	2138	3348.80803802406	6
0	2140	3352.521251043306	5
0	2142	3354.520647607721	4
0	2144	3365.19530282116	5
0	2147	3376.470810804751	6
0	2150	3377.026745266477	7
0	2153	3377.368148165714	8
0	2155	3381.95632567884	9
0	2157	3381.987441222014	8
0	2160	3383.884876636068	7
0	2163	3385.783179856201	6
0	2165	3386.761790795899	7
0	2168	3396.176115110751	8
0	2170	3399.218271680907	7
0	2173	3409.722404108452	8
0	2175	3411.696823462472	9
0	2177	3416.043582847666	10
0	2179	3417.172380005656	11
0	2181	3418.857744488042	12
0	2183	3424.364174025442	11
0	2186	3427.166036612475	10
0	2189	3427.675264866481	9
0	2192	3432.541747635175	8
0	2195	3432.978479098873	9
0	2197	3433.088761150331	8
0	2200	3435.497708243856	7
0	2203	3436.906658277211	6
0	2205	3445.340758532225	5
0	2207	3446.813113107735	4
0	2209	3447.248559890318	3
0	2211	3447.811503956002	4
0	2214	3453.366800630209	3
0	2216	3454.262510242485	4
0	2219	3455.170066826686	5
0	2222	3456.484126726478	4
0	2224	3457.203861303562	5
0	2227	3459.921489118833	6
0	2230	3461.060105856206	5
0	2232	3466.51698620354	6
0	2235	3468.473647925625	7
0	2238	3482.479345121918	8
0	2240	3483.805700446334	7
0	2243	3487.472303374459	8
0	2245	3488.223415429632	7
0	2248	3490.520989594677	6
0	2250	3494.179737111092	5
0	2252	3500.697066319822	4
0	2254	3506.135357272094	5
0	2257	3508.622090273722	4
0	2259	3509.215839592176	5
0	2262	3509.637394595117	4
0	2264	3517.123070623639	5
0	2267	3521.547432453415	4
0	2269	3529.673323166449	3
0	2271	3531.593540048313	2
0	2273	3536.306520096259	3
0	2276	3544.281633166352	2
0	2278	3548.432919628819	1
0	2280	3548.956737422599	2
0	2283	3556.901835257468	1
0	2285	3561.277053841528	2
0	2288	3570.859902039024	3
0	2291	3580.646525025386	4
0	2294	3584.944474147236	5
0	2297	3586.150159199059	6
0	2300	3588.388883902057	7
0	2303	3595.151858787261	6
0	2305	3595.959200494439	7
0	2308	3599.472952721497	6
0	2310	3602.300818205326	7
0	2313	3617.088244107723	6
0	2315	3617.557912748695	7
0	2318	3623.563015476437	6
0	2320	3624.665964490336	5
0	2322	3631.19171440364	4
0	2324	3638.265048698001	5
0	2327	3638.767503106668	4
0	2329	3644.563000136002	3
0	2331	3658.856889145909	4
0	2334	3663.863858455538	3
0	2336	3665.981946485902	4
0	2339	3674.664607479843	5
0	2342	3677.282403910597	4
0	2344	3679.548990131191	5
0	2347	3681.946805780203	6
0	2350	3688.659442264351	7
0	2353	3689.150609015646	6
0	2355	3691.251994426731	7
0	2358	3691.542551175142	6
0	2360	3692.158028461759	5
0	2362	3695.752774377069	6
0	2365	3702.323735541702	5
0	2367	3703.826121270143	6
0	2370	3705.376677853212	5
0	2372	3706.249496711886	6
0	2375	3706.387192344529	5
0	2377	3708.175103324735	4
0	2379	3714.316247791957	3
0	2381	3716.560112048718	4
0	2384	3717.228851620603	5
0	2387	3720.146361633968	6
0	2390	3724.552417743602	5
0	2392	3729.196884526402	4
0	2394	3736.224436485454	3
0	2396	3741.879895993635	4
0	2399	3745.895607135672	3
0	2401	3750.221282216236	2
0	2403	3750.944596439649	3
0	2406	3753.030816923421	4
0	2409	3758.68057004657	5
0	2412	3758.789100976143	6
0	2415	3769.631772057906	5
0	2417	3772.935901969137	6
0	2420	3774.906459947987	5
0	2422	3777.307702383658	6
0	2425	3778.144548748507	5
0	2427	3786.506056069454	6
0	2430	3787.051120329129	7
0	2433	3790.395189211864	6
0	2435	3791.236552058071	5
0	2437	3804.229018397679	4
0	2439	3806.32368716091	5
0	2442	3812.238408786076	6
0	2445	3813.260526871292	7
0	2448	3816.948169423361	6
0	2450	3817.165860064682	7
0	2453	3826.44962178167	6
0	2455	3831.813179707451	7
0	2458	3832.037088004397	6
0	2460	3833.948632773217	7
0	2463	3844.478586681002	6
0	2465	3846.414352022088	5
0	2467	3847.939243243855	4
0	2469	3849.493847950071	3
0	2471	3853.805466504764	2
0	2473	3857.642349220525	3
0	2476	3864.27650720599	4
0	2479	3871.095919197177	5
0	2482	3873.028206490398	6
0	2485	3873.061435641712	7
0	2488	3874.428776827856	8
0	2490	3874.701470355571	9
0	2492	3880.197487265124	8
0	2495	3882.760605234755	9
0	2497	3886.823646812821	8
0	2500	3887.015174702076	9
0	2502	3889.89190809979	10
0	2504	3890.054232911594	9
0	2507	3890.225978758346	8
0	2510	3892.412549704908	7
0	2513	3894.795915534683	8
0	2515	3895.567155554706	7
0	2518	3897.498185120337	6
0	2520	3912.829856002659	7
0	2523	3918.025223197735	8
0	2525	3918.518486494777	7
0	2528	3924.789008719546	6
0	2530	3925.008659767818	5
0	2532	3926.444812556827	6
0	2535	3927.881231396687	5
0	2537	3928.724442134335	4
0	2539	3935.595887239216	5
0	2542	3938.027219471703	4
0	2544	3940.618176883583	3
0	2546	3946.012764887322	2
0	2548	3953.925100272619	3
0	2551	3965.173532668618	4
0	2554	3967.295257095106	5
0	2557	3970.489256343081	4
0	2559	3971.426083047561	3
0	2561	3981.048597318442	4
0	2564	3983.447088908841	5
0	2567	3986.848054901415	6
0	2570	3998.515646780289	7
0	2573	4000.293034499868	6
0	2575	4000.471442213652	5
0	2577	4006.150705845191	6
0	2580	4008.59387239088	7
0	2583	4009.943837142418	6
0	2585	4012.585936107959	7
0	2588	4016.015606585581	6
0	2590	4020.687414830712	7
0	2593	4023.734708636294	6
0	2595	4025.035152448875	5
0	2597	4026.408716634483	4
0	2599	4031.025350040997	5
0	2602	4034.993775338284	4
0	2604	4039.17265674023	5
0	2607	4044.091648504424	4
0	2609	4045.803890602042	5
0	2612	4051.430434620045	6
0	2615	4053.591863643566	5
0	2617	4056.38691630877	4
0	2619	4058.657006864967	5
0	2622	4069.359540459796	6
0	2625	4073.274619030141	5
0	2627	4073.284282197911	6
0	2630	4077.634560792656	5
0	2632	4080.722048609848	4
0	2634	4082.808352505543	3
0	2636	4087.858621015741	4
0	2639	4095.909664791772	5
0	2642	4106.395627221904	4
0	2644	4108.691744214583	5
0	2647	4113.441393009206	4
0	2649	4122.12320335775	3
0	2651	4124.878803728019	4
0	2654	4126.634900608921	3
0	2656	4131.4959249453	4
0	2659	4139.933310668937	5
0	2662	4162.019768772143	4
0	2664	4163.19854207039	5
0	2667	4164.299720485624	6
0	2670	4165.760155053041	7
0	2673	4166.503556161064	8
0	2675	4169.06307544557	9
0	2677	4173.043525146508	8
0	2680	4178.115458598928	9
0	2682	4178.678579047833	10
0	2684	4179.056396688217	9
0	2687	4182.193990712898	10
0	2689	4186.681582531961	9
0	2692	4189.265690266092	8
0	2695	4191.322553717177	9
0	2697	4194.346049959375	10
0	2699	4195.757044986022	11
0	2701	4203.440231824032	10
0	2704	4205.228089716881	9
0	2707	4207.68322383321	8
0	2710	4209.291414743717	7
0	2713	4211.374245213815	6
0	2715	4213.419146240979	7
0	2718	4215.166905595359	6
0	2720	4216.849113300154	7
0	2723	4220.109896107541	6
0	2725	4220.368027678962	5
0	2727	4220.538709740052	4
0	2729	4232.80494051655	5
0	2732	4234.249487931812	6
0	2735	4235.413345744693	5
0	2737	4246.077308599495	4
0	2739	4247.35475225835	5
0	2742	4250.863471023992	6
0	2745	4253.685047954162	5
0	2747	4254.400378434963	6
0	2750	4255.035239304109	5
0	2752	4257.747248003565	6
0	2755	4257.839199775443	5
0	2757	4265.937838133222	6
0	2760	4268.367241569015	7
0	2763	4271.900878093873	6
0	2765	4272.849743242035	5
0	2767	4275.674252287267	6
0	2770	4275.960297580715	5
0	2772	4284.73007826158	4
0	2774	4290.968844260839	3
0	2776	4301.252899703064	4
0	2779	4303.401608953391	5
0	2782	4308.464726283901	4
0	2784	4318.552070994927	5
0	2787	4325.678931494419	6
0	2790	4332.439791969022	7
0	2793	4338.234563496922	6
0	2795	4341.142248820024	5
0	2797	4355.049752867482	4
0	2799	4360.301315608216	3
0	2801	4378.729980678457	2
0	2803	4378.930660505649	3
0	2806	4379.015119903091	4
0	2809	4379.446332519473	5
0	2812	4385.92825041124	6
0	2815	4388.097686891501	7
0	2818	4398.138468142433	6
0	2820	4400.284126097215	5
0	2822	4402.055726816915	4
0	2824	4408.897930736215	3
0	2826	4416.146637400393	2
0	2828	4424.81912473837	3
0	2831	4426.584303691599	2
0	2833	4428.034736227249	3
0	2836	4443.466926786022	4
0	2839	4456.379885292013	5
0	2842	4459.134162971975	6
0	2845	4463.825447765642	7
0	2848	4469.115654340694	8
0	2850	4469.633870073913	9
0	2852	4472.845214078788	8
0	2855	4473.913945806657	9
0	2857	4476.874896892191	8
0	2860	4476.978763510221	9
0	2862	4481.583551100787	10
0	2864	4486.462593621892	9
0	2867	4489.180855525511	8
0	2870	4495.783680728371	9
0	2872	4496.158897167051	10
0	2874	4506.887851572664	11
0	2876	4506.909239503488	10
0	2879	4509.188723840001	9
0	2882	4510.526754247567	8
0	2885	4510.795313841211	7
0	2888	4510.909015505495	8
0	2890	4513.524113019713	9
0	2892	4515.011384138152	8
0	2895	4516.131561167602	7
0	2898	4518.214100727724	8
0	2900	4521.475684809164	7
0	2903	4521.901149881066	6
0	2905	4523.723596226301	5
0	2907	4525.429662670979	4
0	2909	4528.507004205914	3
0	2911	4528.647397613891	4
0	2914	4530.012815288754	5
0	2917	4532.180749149413	4
0	2919	4533.094509369195	5
0	2922	4534.672779292723	6
0	2925	4535.996885418107	7
0	2928	4536.598946820321	6
0	2930	4544.763191790237	5
0	2932	4550.386613698242	4
0	2934	4551.50285476348	5
0	2937	4574.600207996381	4
0	2939	4580.201879081909	3
0	2941	4585.035902338545	4
0	2944	4587.289009579384	5
0	2947	4587.849048684544	4
0	2949	4589.715491872213	5
0	2952	4590.107877844349	4
0	2954	4591.118259072307	3
0	2956	4595.903295020056	4
0	2959	4603.408053077429	5
0	2962	4605.566564642373	6
0	2965	4610.617667048501	5
0	2967	4624.302959244374	4
0	2969	4625.534458786486	5
0	2972	4625.948416343565	6
0	2975	4630.300220894541	5
0	2977	4634.188356198163	6
0	2980	4635.620470175677	5
0	2982	4654.041287831632	4
0	2984	4660.907582282357	5
0	2987	4665.359461234745	6
0	2990	4670.094142646508	5
0	2992	4684.686714088908	6
0	2995	4688.736284633936	7
0	2998	4692.255336371007	8
0	3000	4692.656480423098	9
0	3002	4693.628259026094	10
0	3004	4694.306159299211	11
0	3006	4698.657749541355	12
0	3008	4699.509631118415	11
0	3011	4703.450349754416	12
0	3013	4705.065744303881	13
0	3015	4715.603608935931	12
0	3018	4718.50755307844	11
0	3021	4718.73387038927	10
0	3024	4724.883084081184	9
0	3027	4725.506936769836	10
0	3029	4729.526959269869	9
0	3032	4730.021531708324	8
0	3035	4731.979613809185	7
0	3038	4733.732869028825	8
0	3040	4734.709357741558	7
0	3043	4734.992910780383	6
0	3045	4735.858871234017	7
0	3048	4747.65630096317	8
0	3050	4754.445023556574	7
0	3053	4758.050399231139	6
0	3055	4761.203530674699	5
0	3057	4763.56405740769	4
0	3059	4763.908172787205	5
0	3062	4775.367475868581	6
0	3065	4785.424232751564	5
0	3067	4788.49601950694	6
0	3070	4789.033828988461	7
0	3073	4790.564604898567	8
0	3075	4795.998629242976	7
0	3078	4798.353243172014	8
0	3080	4801.349365010615	9
0	3082	4803.53422461909	8
0	3085	4806.513388578509	9
0	3087	4810.987876778174	10
0	3089	4812.644588108968	9
0	3092	4818.423730802596	10
0	3094	4825.055226411731	9
0	3097	4834.111237580502	10
0	3099	4835.450703018982	9
0	3102	4838.615683215047	10
0	3104	4841.135707188621	9
0	3107	4845.395178895312	8
0	3110	4846.660067817472	9
0	3112	4858.323394444441	8
0	3115	4864.293831970297	7
0	3118	4865.043493775699	8
0	3120	4868.923436919668	7
0	3123	4878.97784207672	8
0	3125	4880.495859758245	9
0	3127	4885.994009219316	10
0	3129	4888.380228414472	11
0	3131	4895.367242104612	12
0	3133	4897.197090491828	13
0	3135	4900.896506764339	12
0	3138	4902.036895061148	13
0	3140	4912.784451242115	14
0	3142	4913.081927705493	13
0	3145	4915.174629179002	14
0	3147	4916.733096143227	15
0	3149	4917.175270853	14
0	3152	4924.43882637542	15
0	3154	4928.316624406989	16
0	3156	4928.968463390629	15
0	3159	4933.084664608525	14
0	3162	4935.169816394529	15
0	3164	4938.155605941218	16
0	3166	4938.925972465702	15
0	3169	4939.643545916495	14
0	3172	4948.529384015217	13
0	3175	4951.122731862712	12
0	3178	4953.111877116489	11
0	3181	4954.319753237313	12
0	3183	4963.664319647361	11
0	3186	4965.170086172619	10
0	3189	4966.075767990722	11
0	3191	4967.726833236786	10
0	3194	4975.143184569455	9
0	3197	4975.144599173532	8
0	3200	4981.244090358651	7
0	3203	4986.00696627009	6
0	3205	4986.752869805919	7
0	3208	4986.757024193806	8
0	3210	4988.647521818452	7
0	3213	4993.586411257295	8
0	3215	4995.661472887508	7
0	3218	4997.929710851769	6
0	3220	4998.7738962547	5
0	3222	5004.721502286161	6
0	3225	5005.90444012646	5
0	3227	5007.39649340102	4
0	3229	5010.536506358394	3
0	3231	5014.197022559415	4
0	3234	5024.940244994882	3
0	3236	5031.917232471007	4
0	3239	5034.475723438574	3
0	3241	5035.900465338973	4
0	3244	5036.730236942727	3
0	3246	5040.077123064211	4
0	3249	5040.632247066683	3
0	3251	5049.104104928968	4
0	3254	5057.090580998077	5
0	3257	5061.463474279205	4
0	3259	5064.473576484874	3
0	3261	5065.975580358419	2
0	3263	5071.031467929403	1
0	3265	5081.776901172167	0
0	3267	5107.704090302946	1
0	3270	5122.598722834716	2
0	3273	5126.266980671945	1
0	3275	5132.128511616303	0
0	3277	5145.157134170257	1
0	3280	5148.349477673125	2
0	3283	5149.567576656527	3
0	3286	5160.707137220517	4
0	3289	5175.396580285196	3
0	3291	5175.901786884259	2
0	3293	5182.973853021931	3
0	3296	5186.085695411844	4
0	3299	5186.401092316333	5
0	3302	5187.784953666329	4
0	3304	5188.366628109478	5
0	3307	5188.570685919658	6
0	3310	5195.678557260407	5
0	3312	5196.788005086163	4
0	3314	5199.69022650438	5
0	3317	5201.25638744872	6
0	3320	5201.282841124777	5
0	3322	5208.215518792106	6
0	3325	5211.126817953009	7
0	3328	5211.225574437077	8
0	3330	5218.085602788554	7
0	3333	5220.219815271672	6
0	3335	5227.849841894909	5
0	3337	5244.689562505046	6
0	3340	5250.485053919921	7
0	3343	5257.791840901562	6
0	3345	5266.334219869077	5
0	3347	5266.383384555252	4
0	3349	5271.213439048867	3
0	3351	5273.46771361829	4
0	3354	5275.474158415382	3
0	3356	5296.558163137473	2
0	3358	5306.230614011702	3
0	3361	5306.426955550026	2
0	3363	5306.584135923168	1
0	3365	5317.780495742825	2
0	3368	5320.650546029561	1
0	3370	5325.48480927087	2
0	3373	5333.290801866724	3
0	3376	5335.048935469173	4
0	3379	5342.296092359637	3
0	3381	5359.388043470302	2
0	3383	5362.809091466421	3
0	3386	5370.332786624888	2
0	3388	5376.071246775107	3
0	3391	5382.879321623436	4
0	3394	5388.765643857133	3
0	3396	5392.848808837442	4
0	3399	5392.866502101255	3
0	3401	5393.052206662825	2
0	3403	5394.767257156871	3
0	3406	5394.825337636657	4
0	3409	5395.971256122319	5
0	3412	5397.653006184192	4
0	3414	5406.18407208175	5
0	3417	5406.701375797015	4
0	3419	5417.727308758028	5
0	3422	5421.464791777478	4
0	3424	5427.100106260234	5
0	3427	5427.448851556716	4
0	3429	5433.094770776475	5
0	3432	5444.953493105397	6
0	3435	5449.034820155465	5
0	3437	5449.611609105744	4
0	3439	5458.556915258325	5
0	3442	5460.913185064179	6
0	3445	5470.302876853824	5
0	3447	5472.180057803072	4
0	3449	5473.546435835178	5
0	3452	5474.230777712239	6
0	3455	5477.450700742402	5
0	3457	5481.096303494519	4
0	3459	5483.104370782599	5
0	3462	5496.067716457917	6
0	3465	5502.82437996344	5
0	3467	5508.063714178198	6
0	3470	5510.250180921477	7
0	3473	5514.942095450868	6
0	3475	5519.5719124148	7
0	3478	5521.795850454758	8
0	3480	5526.275483899003	9
0	3482	5528.700069513905	10
0	3484	5533.916510450126	9
0	3487	5538.434748038201	8
0	3490	5541.857516260443	7
0	3493	5542.882550263465	8
0	3495	5544.583544976051	9
0	3497	5547.251877558187	8
0	3500	5564.388589553844	9
0	3502	5567.013997969476	8
0	3505	5568.16110565405	7
0	3508	5569.416908749185	8
0	3510	5569.728064588087	7
0	3513	5572.329873946353	6
0	3515	5572.393353786865	5
0	3517	5581.437441693993	6
0	3520	5582.026260710866	5
0	3522	5583.810136511867	6
0	3525	5584.528218326699	7
0	3528	5595.426047899268	6
0	3530	5595.840082865102	5
0	3532	5598.470520904417	4
0	3534	5601.971913981713	3
0	3536	5615.821549392215	4
0	3539	5622.255861578457	3
0	3541	5639.736288821335	4
0	3544	5641.908972267806	5
0	3547	5646.488782692535	4
0	3549	5646.775834309682	3
0	3551	5647.096285826515	4
0	3554	5649.629142646506	3
0	3556	5653.664657927697	4
0	3559	5659.866888670655	3
0	3561	5663.047664291401	2
0	3563	5668.902875000546	1
0	3565	5671.001419248513	2
0	3568	5681.739324739068	3
0	3571	5682.449584139099	4
0	3574	5692.603313780099	3
0	3576	5702.225793955367	4
0	3579	5704.388936426987	3
0	3581	5724.50076244742	4
0	3584	5725.240773026573	3
0	3586	5731.750677458647	4
0	3589	5734.775698215978	5
0	3592	5735.591589627313	6
0	3595	5739.964068493874	7
0	3598	5742.605066607298	6
0	3600	5746.273750606428	7
0	3603	5751.146883024808	6
0	3605	5755.523812777746	7
0	3608	5755.628924862235	6
0	3610	5758.113317409332	5
0	3612	5759.247528524223	4
0	3614	5768.191970693893	3
0	3616	5768.788669591223	4
0	3619	5769.55031639378	5
0	3622	5787.725406794162	6
0	3625	5789.591109859467	7
0	3628	5794.445516077789	6
0	3630	5799.249016502862	7
0	3633	5799.250227436947	6
0	3635	5804.459604490877	5
0	3637	5806.246582298274	6
0	3640	5807.610671486757	7
0	3643	5811.503009252742	8
0	3645	5811.915884305503	9
0	3647	5812.815856198253	10
0	3649	5813.337759860309	9
0	3652	5819.447008275961	8
0	3655	5821.296057778557	9
0	3657	5821.377147175059	10
0	3659	5826.515142075061	9
0	3662	5828.427756483024	10
0	3664	5830.202065860989	9
0	3667	5833.441333858316	8
0	3670	5834.780934792234	7
0	3673	5835.738073728464	6
0	3675	5836.572686210004	5
0	3677	5846.545449574329	6
0	3680	5847.598096732137	5
0	3682	5852.185514534594	6
0	3685	5854.968135872064	5
0	3687	5861.00708879554	6
0	3690	5861.366182960866	7
0	3693	5864.49787272239	8
0	3695	5865.790485266748	7
0	3698	5869.285506115076	8
0	3700	5872.581811045278	7
0	3703	5879.009587092351	6
0	3705	5880.968655820954	5
0	3707	5886.662652483985	6
0	3710	5893.684453487879	7
0	3713	5897.251825809704	6
0	3715	5906.522550259958	5
0	3717	5910.553899589953	4
0	3719	5921.028510944903	5
0	3722	5922.692893603135	6
0	3725	5922.863672912539	5
0	3727	5923.373358887395	6
0	3730	5924.047567629947	5
0	3732	5931.863615028204	6
0	3735	5932.833975440264	5
0	3737	5933.170080005291	4
0	3739	5934.277649924608	5
0	3742	5937.825835829334	6
0	3745	5938.305088118527	5
0	3747	5939.671741964851	4
0	3749	5943.860427838113	5
0	3752	5944.741959809075	6
0	3755	5950.73801143587	5
0	3757	5957.391092062559	4
0	3759	5965.012873952288	5
0	3762	5967.125940014557	6
0	3765	5968.444345168881	5
0	3767	5968.639705594432	4
0	3769	5969.248675889626	5
0	3772	5969.314937009852	6
0	3775	5975.151642922028	5
0	3777	5977.20448745507	4
0	3779	5985.070288261798	3
0	3781	5989.57365234353	2
0	3783	5991.225173156391	3
0	3786	5991.428571080817	2
0	3788	5995.499604439505	3
0	3791	6014.011036988992	4
0	3794	6014.25115767639	5
0	3797	6017.553566646761	6
0	3800	6025.294444267489	7
0	3803	6027.336013593517	8
0	3805	6029.907096637814	7
0	3808	6036.087024784464	6
0	3810	6036.914705202362	7
0	3813	6038.506514788705	6
0	3815	6038.535122842789	7
0	3818	6039.967426946201	6
0	3820	6041.157088567389	5
0	3822	6042.614090724612	6
0	3825	6043.066462968942	7
0	3828	6055.610784489244	6
0	3830	6062.376911331651	5
0	3832	6071.550175722316	6
0	3835	6072.858660544614	5
0	3837	6077.967614387542	4
0	3839	6088.320170210965	3
0	3841	6096.553249849435	4
0	3844	6103.806121744024	5
0	3847	6105.076323611063	6
0	3850	6118.467212244348	7
0	3853	6143.784831793591	8
0	3855	6145.215501987771	9
0	3857	6148.529057578785	10
0	3859	6153.645884261204	9
0	3862	6156.963854113457	10
0	3864	6157.453004549427	11
0	3866	6157.75482924185	10
0	3869	6157.951510047563	11
0	3871	6165.751314924717	10
0	3874	6171.635807509078	11
0	3876	6172.084535339889	12
0	3878	6175.649530850826	11
0	3881	6182.36191669245	10
0	3884	6185.097310255691	11
0	3886	6188.738987916631	12
0	3888	6191.825298488542	11
0	3891	6193.71788002502	12
0	3893	6204.764246059621	13
0	3895	6216.603976180364	14
0	3897	6217.932341846519	13
0	3900	6219.402859501387	14
0	3902	6227.292885919886	13
0	3905	6230.455518229681	14
0	3907	6231.151295109645	13
0	3910	6244.243026818191	12
0	3913	6245.649201795021	13
0	3915	6250.441971920629	14
0	3917	6251.167450200618	15
0	3919	6253.83303112082	16
0	3921	6255.097672403716	15
0	3924	6266.254834595921	16
0	3926	6267.484609477007	17
0	3928	6270.380603328658	18
0	3930	6289.651620833971	19
0	3932	6291.822269185269	18
0	3935	6294.440692665592	17
0	3938	6300.909983347946	16
0	3941	6307.442743475741	15
0	3944	6313.876365511348	14
0	3947	6315.320304853362	15
0	3949	6315.979585359725	16
0	3951	6323.686522212272	15
0	3954	6326.095931058187	16
0	3956	6326.728809136971	15
0	3959	6336.443051742793	16
0	3961	6341.271264327342	15
0	3964	6345.351438940127	16
0	3966	6345.998363761366	17
0	3968	6349.422395689089	18
0	3970	6350.747179244087	17
0	3973	6354.761194571712	16
0	3976	6355.363730169694	15
0	3979	6357.541187820768	14
0	3982	6357.606522466065	13
0	3985	6358.290616444782	14
0	3987	6358.327200896513	13
0	3990	6359.514328143856	12
0	3993	6359.655361458666	13
0	3995	6360.152863861274	14
0	3997	6366.428113858561	13
0	4000	6367.35051868427	12
0	4003	6370.681091259391	13
0	4005	6371.624641397463	14
0	4007	6380.599523668467	13
0	4010	6381.979377685517	12
0	4013	6388.192965387445	11
0	4016	6389.37713709668	10
0	4019	6394.648492561125	9
0	4022	6404.522264894181	10
0	4024	6406.713309471925	9
0	4027	6408.481687880027	8
0	4030	6409.682349444888	9
0	4032	6410.263276087063	10
0	4034	6410.938662782388	11
0	4036	6412.108648784028	10
0	4039	6413.184915978442	9
0	4042	6425.593369057568	8
0	4045	6428.561986267657	9
0	4047	6428.821783479092	10
0	4049	6430.354296778372	9
0	4052	6431.534952629148	8
0	4055	6432.923731281702	9
0	4057	6433.164589145199	8
0	4060	6433.38329764798	7
0	4063	6441.088441389159	8
0	4065	6449.702919529033	7
0	4068	6451.956563988195	6
0	4070	6453.664905941379	5
0	4072	6459.485295259149	6
0	4075	6469.649431546621	5
0	4077	6477.528943739215	6
0	4080	6477.728174967063	7
0	4083	6477.747767442503	6
0	4085	6478.931047511448	5
0	4087	6483.009474360302	6
0	4090	6489.261179058732	7
0	4093	6494.920048396426	6
0	4095	6503.805703687409	7
0	4098	6511.350401126061	6
0	4100	6511.843660317908	7
0	4103	6515.575281315488	6
0	4105	6519.472566601977	5
0	4107	6521.718769507927	6
0	4110	6522.979061722458	5
0	4112	6524.818380686414	6
0	4115	6546.44645656139	7
0	4118	6549.345014446185	8
0	4120	6564.846814206165	7
0	4123	6565.048038186596	6
0	4125	6571.054699077092	5
0	4127	6576.702602403959	4
0	4129	6578.65252260294	5
0	4132	6593.732044075708	6
0	4135	6600.828946561926	7
0	4138	6606.940693593897	6
0	4140	6608.881080132429	7
0	4143	6617.426811561336	6
0	4145	6628.953407460253	5
0	4147	6632.24241865003	6
0	4150	6632.926867372624	7
0	4153	6635.665867051068	6
0	4155	6642.702472962865	7
0	4158	6644.155584908709	6
0	4160	6645.005592745612	5
0	4162	6653.335337325652	6
0	4165	6654.603460657358	5
0	4167	6658.334373364258	6
0	4170	6659.465506504285	7
0	4173	6659.682626495709	6
0	4175	6679.188744863934	7
0	4178	6685.953706407331	6
0	4180	6686.610687619522	5
0	4182	6696.78292700945	6
0	4185	6701.336162405136	5
0	4187	6702.232075575687	4
0	4189	6703.715222754943	5
0	4192	6714.183001858815	6
0	4195	6716.370075414713	7
0	4198	6717.707257845548	8
0	4200	6719.864544589044	7
0	4203	6721.655086379155	8
0	4205	6723.549048446147	7
0	4208	6724.781682743897	8
0	4210	6727.341188773233	7
0	4213	6729.168738347143	8
0	4215	6730.669225160347	9
0	4217	6732.102817489122	10
0	4219	6736.601788543418	9
0	4222	6745.950627025085	10
0	4224	6746.153167772651	11
0	4226	6755.761585129371	10
0	4229	6757.034139635317	9
0	4232	6769.910520994447	10
0	4234	6770.342887966529	11
0	4236	6770.407865855022	12
0	4238	6779.482607151743	13
0	4240	6780.162582899143	14
0	4242	6782.505485932358	15
0	4244	6787.397126021529	16
0	4246	6788.716641838302	17
0	4248	6794.74693253774	18
0	4250	6795.712510742916	17
0	4253	6796.507947673956	18
0	4255	6811.839018023816	19
0	4257	6821.589242424701	18
0	4260	6825.481469399348	19
0	4262	6826.04008031434	18
0	4265	6828.925862542635	19
0	4267	6831.79339091961	18
0	4270	6836.793078801848	17
0	4273	6838.789797361744	16
0	4276	6846.713207298758	17
0	4278	6848.357360308363	18
0	4280	6853.203130045776	19
0	4282	6855.851777373705	20
0	4284	6864.288354236937	19
0	4287	6866.654329346779	20
0	4289	6866.898346979552	21
0	4291	6870.896620346597	20
0	4294	6873.74426848712	21
0	4296	6876.454145196077	22
0	4298	6881.817643713567	23
0	4300	6887.258184660734	22
0	4303	6888.919024526309	21
0	4306	6890.816594236573	22
0	4308	6897.928902807699	21
0	4311	6899.088174306118	22
0	4313	6899.913124688685	21
0	4316	6905.877813169851	22
0	4318	6910.861306412753	21
0	4321	6911.106250527988	20
0	4324	6913.394582107851	19
0	4327	6924.687915570908	18
0	4330	6929.577551021567	19
0	4332	6934.670870867565	18
0	4335	6934.909348115208	17
0	4338	6935.406234667046	16
0	4341	6937.626301819394	17
0	4343	6950.600126755495	18
0	4345	6952.803631941547	17
0	4348	6955.580605174336	16
0	4351	6962.744556637883	15
0	4354	6963.374557217754	14
0	4357	6971.834655124892	13
0	4360	6973.655831126539	12
0	4363	6974.326876221378	11
0	4366	6978.073472526012	12
0	4368	6981.121805320813	11
0	4371	6982.300353011643	12
0	4373	6985.039803156585	11
0	4376	6986.786560395733	12
0	4378	6987.040360107476	11
0	4381	6989.103070673142	12
0	4383	6990.757518190307	11
0	4386	6991.044305291808	12
0	4388	6991.065322914716	13
0	4390	6991.248414728297	14
0	4392	6993.678210469061	13
0	4395	6994.002750711475	14
0	4397	6998.477404260248	13
0	4400	7000.724327476697	12
0	4403	7003.023431077828	13
0	4405	7010.496052383318	12
0	4408	7012.283324425373	11
0	4411	7031.027032296594	10
0	4414	7034.007263248932	11
0	4416	7034.13086387737	12
0	4418	7037.688316540897	11
0	4421	7038.137634684279	10
0	4424	7038.542446935561	11
0	4426	7039.813074992754	12
0	4428	7042.772881823251	11
0	4431	7045.440328510035	10
0	4434	7046.026763792255	11
0	4436	7047.813810867143	10
0	4439	7049.788478244837	9
0	4442	7051.304809741815	8
0	4445	7051.447337625244	9
0	4447	7051.973633326609	10
0	4449	7053.171568262262	11
0	4451	7054.398745236359	12
0	4453	7057.499593608965	11
0	4456	7061.553179690728	12
0	4458	7068.704105297851	11
0	4461	7068.891678394801	10
0	4464	7069.591644798647	9
0	4467	7072.885804258621	8
0	4470	7076.992420663862	7
0	4473	7078.864125194177	6
0	4475	7091.604490361194	5
0	4477	7095.474569695989	6
0	4480	7095.696583184667	5
0	4482	7097.391426368043	6
0	4485	7098.284555380568	5
0	4487	7103.529692091504	6
0	4490	7116.026330076969	7
0	4493	7118.025919938577	8
0	4495	7118.739494350094	9
0	4497	7119.990027630259	8
0	4500	7125.709153882826	7
0	4503	7126.83808584507	6
0	4505	7126.955873836306	7
0	4508	7131.357746990425	8
0	4510	7135.573657388601	7
0	4513	7137.302522360359	6
0	4515	7138.944179152549	5
0	4517	7141.739575831806	6
0	4520	7142.353668849585	7
0	4523	7147.964933388025	8
0	4525	7148.423631692499	7
0	4528	7151.118826139629	6
0	4530	7151.48059548392	5
0	4532	7152.477642071113	4
0	4534	7152.552959220197	5
0	4537	7155.742792814256	6
0	4540	7157.784093206638	5
0	4542	7166.246390813382	6
0	4545	7176.493182799869	7
0	4548	7178.558796294073	8
0	4550	7179.674750382893	9
0	4552	7180.718341493786	10
0	4554	7190.916169667801	11
0	4556	7192.378057837252	10
0	4559	7213.553198417157	9
0	4562	7214.04053237332	8
0	4565	7219.696601447243	9
0	4567	7221.42960898967	8
0	4570	7224.446585114695	9
0	4572	7225.966940999094	8
0	4575	7229.512829278264	9
0	4577	7231.734407715768	8
0	4580	7233.084953208984	7
0	4583	7233.145846349687	6
0	4585	7235.327561693949	7
0	4588	7239.042568179692	6
0	4590	7250.400309912051	5
0	4592	7255.303157845077	4
0	4594	7258.388306789202	5
0	4597	7262.257009204407	4
0	4599	7262.969005362327	3
0	4601	7263.953607007381	2
0	4603	7266.273549859468	3
0	4606	7272.124988471277	2
0	4608	7274.008472794948	3
0	4611	7276.702178783844	2
0	4613	7289.714191725171	3
0	4616	7290.517160086375	4
0	4619	7293.547087468344	5
0	4622	7293.732381440436	6
0	4625	7300.802761829861	5
0	4627	7303.261244504362	6
0	4630	7311.51951235	5
0	4632	7319.629890063662	4
0	4634	7320.908993605492	5
0	4637	7321.900690420629	6
0	4640	7329.240095363782	7
0	4643	7333.858177734047	8
0	4645	7334.552646152064	7
0	4648	7339.671854780687	8
0	4650	7349.775337827088	9
0	4652	7350.292560484944	8
0	4655	7355.117636250509	7
0	4658	7367.083366554331	6
0	4660	7369.335104104926	5
0	4662	7374.379305964989	4
0	4664	7376.505829509443	3
0	4666	7378.361836417539	2
0	4668	7381.923981511463	3
0	4671	7391.249787134932	2
0	4673	7399.576530100963	3
0	4676	7400.209116600697	2
0	4678	7422.303729988361	3
0	4681	7426.028140687606	2
0	4683	7428.819993719129	3
0	4686	7438.472804425817	2
0	4688	7439.758036325821	3
0	4691	7447.785531079814	4
0	4694	7449.904649560331	5
0	4697	7452.987999138363	4
0	4699	7455.983061207931	5
0	4702	7459.877429026521	4
0	4704	7459.906246853646	3
0	4706	7462.397639292682	2
0	4708	7466.939581317642	1
0	4710	7467.69131485803	0
0	4712	7477.86498382083	1
0	4715	7481.259221846476	2
0	4718	7486.217898560594	3
0	4721	7488.528937652406	2
0	4723	7500.557447115813	1
0	4725	7501.172305897503	2
0	4728	7510.009754386198	3
0	4731	7516.32393223216	2
0	4733	7516.841053129058	3
0	4736	7521.794290458457	4
0	4739	7524.213397504134	5
0	4742	7525.206118959214	6
0	4745	7528.513474558742	5
0	4747	7537.966914596625	6
0	4750	7539.143599321275	7
0	4753	7546.307817765868	6
0	4755	7550.348720205145	5
0	4757	7551.101509049243	4
0	4759	7553.534387378525	5
0	4762	7556.371959200489	4
0	4764	7566.317208462894	5
0	4767	7567.190028042924	4
0	4769	7569.759888945072	3
0	4771	7571.141978946305	4
0	4774	7572.494822498709	3
0	4776	7602.803537779479	4
0	4779	7605.911103192204	3
0	4781	7606.90764517769	2
0	4783	7611.909371913213	3
0	4786	7615.005735035639	4
0	4789	7615.788998397957	5
0	4792	7619.274361327208	4
0	4794	7623.355847034318	3
0	4796	7624.43763989708	4
0	4799	7631.34806278528	3
0	4801	7634.695141468964	4
0	4804	7637.197600832688	3
0	4806	7640.286542728781	4
0	4809	7643.56804178457	5
0	4812	7650.254298502799	6
0	4815	7650.43670180987	7
0	4818	7650.876697503613	6
0	4820	7659.393306948108	5
0	4822	7662.996994912202	4
0	4824	7669.411915639589	5
0	4827	7673.417461799641	4
0	4829	7679.181273319543	5
0	4832	7679.568829791694	6
0	4835	7681.1230750122	5
0	4837	7684.195802334323	4
0	4839	7685.925829203557	5
0	4842	7688.964263256326	6
0	4845	7703.05882572252	7
0	4848	7710.153797319694	6
0	4850	7716.777489374849	7
0	4853	7717.756788673529	8
0	4855	7721.915605131987	9
0	4857	7722.722847560502	8
0	4860	7725.193290079495	7
0	4863	7730.040801729548	6
0	4865	7735.165258706761	5
0	4867	7749.615873439758	4
0	4869	7750.328459177431	3
0	4871	7753.337628491132	2
0	4873	7760.643708637709	1
0	4875	7761.850796616761	2
0	4878	7782.755850540328	3
0	4881	7785.989824134285	4
0	4884	7793.459109379728	5
0	4887	7794.609575448101	6
0	4890	7795.465556779993	5
0	4892	7798.308021967392	6
0	4895	7798.654409412945	7
0	4898	7805.223668338225	8
0	4900	7806.767275644618	7
0	4903	7808.319026270204	8
0	4905	7809.211486412364	7
0	4908	7812.368677052406	8
0	4910	7814.253327171235	9
0	4912	7828.501284337277	8
0	4915	7828.950598569645	7
0	4918	7834.661359502125	6
0	4920	7835.748517591895	5
0	4922	7837.060612596808	6
0	4925	7841.86651979485	5
0	4927	7843.893154465503	6
0	4930	7849.986947054377	5
0	4932	7861.577408493084	6
0	4935	7862.018633048718	5
0	4937	7871.022008219412	4
0	4939	7887.012158823061	5
0	4942	7897.241569789156	4
0	4944	7898.596012916602	3
0	4946	7900.909532039628	4
0	4949	7902.864446841934	5
0	4952	7908.581626860466	4
0	4954	7909.903162021992	3
0	4956	7912.561515648044	4
0	4959	7915.754869344829	5
0	4962	7919.018957517434	4
0	4964	7928.420021742692	5
0	4967	7929.194329641374	4
0	4969	7930.89526523461	5
0	4972	7932.229087764052	6
0	4975	7933.959289724477	5
0	4977	7934.758429035935	6
0	4980	7935.543060758329	5
0	4982	7936.506255553473	6
0	4985	7945.801064633826	7
0	4988	7947.281568484003	8
0	4990	7952.977420397523	7
0	4993	7954.378739230065	6
0	4995	7955.750753010428	5
0	4997	7965.177856729051	6
0	5000	7972.014888172995	5
0	5002	7975.578038758337	6
0	5005	7982.59943693094	7
0	5008	7982.982521052534	8
0	5010	7985.41591998592	7
0	5013	7987.078155635576	8
0	5015	7995.566607209004	9
0	5017	8000.004147444489	10
0	5019	8002.153463138679	9
0	5022	8005.235211253383	8
0	5025	8006.180492159669	9
0	5027	8011.473002792286	8
0	5030	8012.621823283203	9
0	5032	8040.445313834087	8
0	5035	8041.086847618982	7
0	5038	8043.93039015468	6
0	5040	8043.965666539781	5
0	5042	8052.528816660422	4
0	5044	8053.80618966376	5
0	5047	8056.722338512412	6
0	5050	8057.040691249463	7
0	5053	8059.424636198447	8
0	5055	8062.568594327814	7
0	5058	8062.610320895621	8
0	5060	8081.8666634661	9
0	5062	8083.55632803769	8
0	5065	8084.072585396244	9
0	5067	8086.638727435382	8
0	5070	8089.803993603694	9
0	5072	8093.641865351583	10
0	5074	8094.660775703352	11
0	5076	8098.418544930262	10
0	5079	8099.116924681304	9
0	5082	8102.624145511499	8
0	5085	8111.260360165798	9
0	5087	8118.023030382773	10
0	5089	8119.959489710621	11
0	5091	8120.70735075941	10
0	5094	8121.101468208842	9
0	5097	8122.260566515838	10
0	5099	8122.709712337621	9
0	5102	8122.785552171196	10
0	5104	8122.82882933867	11
0	5106	8125.231425151342	10
0	5109	8125.733547426122	9
0	5112	8127.963537975714	10
0	5114	8128.517360672128	9
0	5117	8128.792922130003	8
0	5120	8133.25752338281	7
0	5123	8134.754516552084	8
0	5125	8135.073455321404	7
0	5128	8140.488116509204	6
0	5130	8146.169012822829	5
0	5132	8146.761642553867	6
0	5135	8150.309463400602	7
0	5138	8153.424967137694	6
0	5140	8163.533022421043	5
0	5142	8174.709986411002	6
0	5145	8177.430508821573	5
0	5147	8183.907953605218	6
0	5150	8185.614671791006	5
0	5152	8191.048441190927	4
0	5154	8197.661793275267	5
0	5157	8201.978779867587	4
0	5159	8205.277025508877	5
0	5162	8205.62852215446	6
0	5165	8207.155065684909	7
0	5168	8209.826324151762	6
0	5170	8227.815307416995	7
0	5173	8229.1040322363	6
0	5175	8230.684263908701	7
0	5178	8238.751439109335	8
0	5180	8245.059017251091	7
0	5183	8246.311180310913	6
0	5185	8246.661732091319	5
0	5187	8248.818007689362	6
0	5190	8248.818268460533	5
0	5192	8250.03471896386	4
0	5194	8252.897499196214	5
0	5197	8257.404073123029	6
0	5200	8258.363502263147	5
0	5202	8259.977613133604	4
0	5204	8262.902603391558	3
0	5206	8285.348039294184	2
0	5208	8289.4656979286	3
0	5211	8290.269328487202	2
0	5213	8290.623340084319	3
0	5216	8291.449701420167	4
0	5219	8291.841312252479	3
0	5221	8292.74839812836	2
0	5223	8292.978556208945	3
0	5226	8297.759572376205	4
0	5229	8305.069616162584	3
0	5231	8306.004426546152	2
0	5233	8308.107137511653	3
0	5236	8308.7667158484	4
0	5239	8316.601675006002	5
0	5242	8319.15151977654	6
0	5245	8325.636263364753	7
0	5248	8328.718383663126	6
0	5250	8330.217723169623	5
0	5252	8332.973120114846	4
0	5254	8345.331520826997	5
0	5257	8345.790722551497	6
0	5260	8349.935930702571	5
0	5262	8355.686193649653	4
0	5264	8368.555771805625	3
0	5266	8383.844357728925	2
0	5268	8397.574192142972	3
0	5271	8401.508669704551	4
0	5274	8403.00543543493	5
0	5277	8407.726310221652	6
0	5280	8410.392602020011	7
0	5283	8417.415849729614	8
0	5285	8426.677477509321	7
0	5288	8427.315595312559	8
0	5290	8430.347831064593	7
0	5293	8435.600149034268	6
0	5295	8436.843713210705	7
0	5298	8437.419511961014	8
0	5300	8441.783575147043	7
0	5303	8447.543051709786	8
0	5305	8448.075289450183	7
0	5308	8451.602581364496	8
0	5310	8452.058810098969	7
0	5313	8456.671594823157	6
0	5315	8458.774315267672	7
0	5318	8461.892532590246	6
0	5320	8463.162706985358	5
0	5322	8465.322909426582	4
0	5324	8468.300068791325	3
0	5326	8477.909853944724	2
0	5328	8496.490149190123	3
0	5331	8499.015755098205	4
0	5334	8507.445300288767	3
0	5336	8524.845455350747	4
0	5339	8526.025320789066	3
0	5341	8529.0436211382	4
0	5344	8529.796129153792	3
0	5346	8535.258765993714	2
0	5348	8539.003108496073	3
0	5351	8540.231902439147	2
0	5353	8550.959062777997	3
0	5356	8556.350373519063	2
0	5358	8569.539273855568	3
0	5361	8574.551825175369	4
0	5364	8578.811977338692	5
0	5367	8582.951178541373	6
0	5370	8587.919737886691	5
0	5372	8588.744747327943	4
0	5374	8590.392848355879	5
0	5377	8598.678403736866	4
0	5379	8601.473292578711	3
0	5381	8603.370573827113	2
0	5383	8605.81513382285	3
0	5386	8617.146166703	4
0	5389	8628.395356628711	3
0	5391	8634.254975813324	2
0	5393	8659.688856694514	3
0	5396	8679.35322769062	4
0	5399	8683.713476574197	5
0	5402	8683.731666340949	6
0	5405	8691.776878755356	7
0	5408	8692.575558555192	6
0	5410	8693.515706623533	5
0	5412	8696.570793190027	4
0	5414	8718.619407750834	3
0	5416	8725.161896152859	4
0	5419	8726.105688098934	3
0	5421	8727.847189712069	2
0	5423	8744.541445869307	3
0	5426	8745.984298943237	4
0	5429	8747.326636922829	5
0	5432	8749.0513785986	4
0	5434	8761.11803728529	5
0	5437	8763.871401762211	6
0	5440	8768.478414650716	5
0	5442	8768.696275872031	6
0	5445	8768.995895648932	5
0	5447	8777.032468608985	6
0	5450	8786.089623202028	7
0	5453	8787.661348299869	8
0	5455	8788.297796330113	9
0	5457	8790.926976097275	10
0	5459	8793.346583416963	11
0	5461	8797.236397255727	10
0	5464	8814.366201752878	9
0	5467	8815.362970955283	10
0	5469	8817.626200423953	9
0	5472	8820.276452040053	10
0	5474	8822.066532168113	9
0	5477	8822.838521238079	8
0	5480	8823.301887968948	9
0	5482	8829.859492114253	8
0	5485	8830.481601446984	7
0	5488	8838.535839407279	8
0	5490	8839.343766307838	9
0	5492	8858.458226509566	10
0	5494	8863.992691182449	11
0	5496	8864.691062919308	10
0	5499	8866.576112534447	11
0	5501	8867.208624543836	12
0	5503	8867.778555528355	13
0	5505	8870.090455349425	14
0	5507	8870.502988001692	13
0	5510	8873.155916878855	14
0	5512	8881.111933147599	13
0	5515	8881.596346468867	12
0	5518	8883.980489910476	11
0	5521	8884.982714064086	10
0	5524	8885.76252647651	9
0	5527	8897.905840865323	8
0	5530	8897.995286579916	9
0	5532	8901.806140408792	10
0	5534	8902.386836191515	9
0	5537	8905.420994066394	8
0	5540	8910.65534112937	7
0	5543	8912.455844227147	6
0	5545	8916.543547318479	7
0	5548	8921.129681541669	6
0	5550	8923.623396394544	7
0	5553	8924.911610389713	8
0	5555	8926.619065290861	9
0	5557	8928.8800746557	10
0	5559	8928.912072874925	9
0	5562	8929.137201868446	8
0	5565	8933.591605443842	7
0	5568	8934.118618976591	8
0	5570	8934.569147064521	9
0	5572	8936.332094213717	8
0	5575	8936.587983976691	7
0	5578	8937.989808365345	6
0	5580	8938.977642048256	7
0	5583	8940.115654331523	6
0	5585	8940.761167895719	7
0	5588	8941.854537608113	6
0	5590	8946.261973645939	5
0	5592	8951.348589439269	4
0	5594	8953.540238958423	5
0	5597	8955.683663961233	4
0	5599	8966.785008469962	5
0	5602	8967.738955563937	6
0	5605	8976.100035791717	5
0	5607	8987.450165436069	6
0	5610	8987.832962010879	7
0	5613	8989.964457796833	6
0	5615	8995.67897839575	7
0	5618	8996.451985013019	6
0	5620	8999.094943752791	5
0	5622	8999.338195766169	4
0	5624	9005.260970344997	5
0	5627	9005.975649033742	6
0	5630	9008.14929929386	5
0	5632	9011.275674041488	6
0	5635	9015.640107785676	5
0	5637	9016.84162403655	6
0	5640	9017.512017304471	5
0	5642	9019.589079140871	6
0	5645	9024.375462431283	5
0	5647	9025.605631694462	4
0	5649	9028.397364461558	5
0	5652	9031.189767446474	4
0	5654	9036.275931058157	3
0	5656	9045.24462502434	4
0	5659	9046.146062220159	5
0	5662	9059.06949314352	4
0	5664	9060.035497674827	3
0	5666	9062.414290405005	4
0	5669	9062.603065357012	3
0	5671	9065.187700976404	2
0	5673	9069.396600611145	3
0	5676	9069.461139500065	2
0	5678	9070.12755119735	3
0	5681	9081.400273709155	4
0	5684	9086.192452582498	3
0	5686	9086.364912115099	4
0	5689	9090.262008366329	5
0	5692	9090.288586308635	4
0	5694	9095.711603312648	3
0	5696	9097.645470723574	2
0	5698	9098.926320973664	3
0	5701	9112.746072891099	2
0	5703	9112.898570297831	3
0	5706	9118.053057024926	4
0	5709	9119.541498446624	5
0	5712	9120.325575127659	6
0	5715	9122.776693263387	7
0	5718	9123.356407666014	6
0	5720	9123.466865903452	5
0	5722	9132.713905059597	6
0	5725	9138.885227583817	5
0	5727	9145.790235832694	6
0	5730	9145.816042896138	5
0	5732	9159.470097867602	6
0	5735	9162.106675397876	5
0	5737	9168.699925884782	6
0	5740	9171.53462009356	5
0	5742	9181.023721128095	4
0	5744	9193.218544789722	3
0	5746	9193.371871533842	4
0	5749	9205.557866399043	5
0	5752	9206.287024460521	6
0	5755	9207.861419895014	7
0	5758	9210.8369180696	6
0	5760	9212.411716808542	7
0	5763	9213.032978332926	6
0	5765	9214.168672774545	5
0	5767	9217.478002628051	4
0	5769	9236.942352456586	5
0	5772	9237.895948529489	6
0	5775	9239.453884439794	7
0	5778	9240.065133649613	6
0	5780	9241.556591473347	7
0	5783	9251.107284613093	8
0	5785	9254.40037974748	7
0	5788	9255.075494450155	8
0	5790	9258.02708023424	9
0	5792	9259.070432053189	10
0	5794	9261.179477546246	9
0	5797	9261.271801466969	8
0	5800	9264.763511120277	9
0	5802	9266.249509366617	10
0	5804	9266.819559738216	9
0	5807	9284.119849798034	8
0	5810	9284.688392043594	7
0	5813	9285.922877802046	8
0	5815	9290.441332790139	9
0	5817	9290.799918853113	8
0	5820	9302.473055627763	9
0	5822	9307.813737321351	8
0	5825	9307.96997786895	9
0	5827	9312.615254398987	8
0	5830	9317.613521470629	7
0	5833	9319.029411150269	8
0	5835	9322.339760285381	7
0	5838	9326.809452610545	6
0	5840	9329.223753537161	5
0	5842	9332.297331670346	6
0	5845	9333.237153535019	7
0	5848	9341.85431351508	6
0	5850	9344.157977655355	7
0	5853	9349.819806829178	6
0	5855	9355.426674756573	5
0	5857	9362.913681115473	4
0	5859	9363.264134489764	3
0	5861	9363.713791577345	4
0	5864	9366.339080354075	5
0	5867	9370.963021568095	4
0	5869	9377.427975138855	3
0	5871	9385.009797716075	4
0	5874	9393.772570762864	3
0	5876	9413.677081650658	4
0	5879	9432.350120509515	3
0	5881	9446.816179490217	4
0	5884	9448.367308663164	3
0	5886	9451.92681411221	2
0	5888	9459.657826081098	3
0	5891	9460.6172435206	4
0	5894	9461.728704837808	3
0	5896	9461.947168626464	2
0	5898	9462.527153959134	1
0	5900	9479.480915447484	2
0	5903	9483.34144724654	3
0	5906	9488.286494111338	4
0	5909	9490.85874091576	5
0	5912	9495.455156663074	4
0	5914	9501.383187695083	5
0	5917	9503.388217388165	4
0	5919	9510.0226785943	3
0	5921	9516.491638074904	4
0	5924	9517.561878570512	3
0	5926	9528.017266565297	4
0	5929	9528.852938983223	3
0	5931	9537.365693522572	2
0	5933	9543.093794401876	1
0	5935	9546.357614029579	0
0	5937	9546.36958027664	1
0	5940	9547.769878053033	0
0	5942	9549.504041223265	1
0	5945	9555.132738933114	2
0	5948	9559.306282654025	3
0	5951	9561.307137667784	4
0	5954	9566.420444127931	3
0	5956	9591.69819632607	2
0	5958	9596.64848768657	3
0	5961	9597.044125538057	4
0	5964	9600.696796243491	5
0	5967	9601.805165980817	4
0	5969	9602.775633160294	3
0	5971	9603.248326031009	2
0	5973	9617.723432340839	3
0	5976	9618.953406213081	2
0	5978	9619.652383050186	3
0	5981	9622.445798201889	2
0	5983	9628.191293816424	1
0	5985	9643.368459422186	2
0	5988	9646.660055450422	3
0	5991	9657.901477700592	4
0	5994	9664.354771825347	5
0	5997	9669.530651069381	4
0	5999	9678.25221745594	5
0	6002	9679.650982252449	4
0	6004	9687.081199903316	3
0	6006	9687.456465608218	2
0	6008	9689.148451487151	3
0	6011	9692.128583880369	4
0	6014	9698.065023989321	5
0	6017	9699.169844220063	6
0	6020	9699.33780762717	5
0	6022	9700.195017120603	6
0	6025	9701.045206348629	7
0	6028	9704.363722881741	6
0	6030	9705.150883171722	5
0	6032	9709.32324154429	6
0	6035	9718.240501256667	7
0	6038	9724.00207898642	6
0	6040	9727.292759737319	5
0	6042	9729.172456725389	4
0	6044	9732.808359369511	5
0	6047	9733.73632614349	4
0	6049	9734.032407345932	5
0	6052	9739.975014949657	4
0	6054	9740.483992217653	5
0	6057	9741.077112209487	4
0	6059	9751.75057995006	3
0	6061	9755.911936753687	2
0	6063	9760.999367905607	3
0	6066	9763.022396417221	4
0	6069	9765.269750145605	5
0	6072	9767.401081909001	4
0	6074	9773.10964327143	5
0	6077	9780.608953834727	4
0	6079	9782.056184433567	3
0	6081	9784.138329800855	4
0	6084	9790.665095166704	3
0	6086	9791.284261286468	2
0	6088	9805.239940534679	3
0	6091	9812.79423149236	4
0	6094	9819.061732183601	3
0	6096	9819.949412511979	4
0	6099	9823.332953011818	5
0	6102	9826.920232583519	6
0	6105	9834.900900561265	7
0	6108	9839.778939752971	8
0	6110	9839.923703575143	9
0	6112	9841.842213992328	8
0	6115	9845.349026176592	7
0	6118	9847.115147175598	8
0	6120	9855.387565177602	7
0	6123	9857.200098671047	6
0	6125	9858.682057665517	7
0	6128	9859.781085292427	8
0	6130	9860.914949716356	7
0	6133	9861.290757485481	8
0	6135	9861.328682910564	7
0	6138	9864.406061956398	6
0	6140	9871.217775350102	5
0	6142	9872.933352981359	4
0	6144	9874.450982708482	5
0	6147	9879.127416514457	4
0	6149	9882.033368121012	5
0	6152	9887.159637483239	4
0	6154	9898.238147226779	5
0	6157	9898.245544642284	4
0	6159	9899.239087264531	5
0	6162	9900.394689654678	6
0	6165	9907.153822723684	7
0	6168	9908.695707268029	8
0	6170	9919.279437677472	9
0	6172	9920.484469529255	8
0	6175	9921.122263393849	9
0	6177	9922.252908910889	8
0	6180	9924.863697126556	7
0	6183	9930.87347570557	6
0	6185	9933.862217137417	7
0	6188	9934.22779866445	6
0	6190	9940.804773126181	7
0	6193	9941.976631894721	8
0	6195	9952.770711465799	9
0	6197	9957.953680727005	10
0	6199	9958.045102664683	9
0	6202	9963.618684718762	8
0	6205	9965.408245499224	9
0	6207	9966.311466584507	8
0	6210	9969.643377211262	9
0	6212	9970.628756392722	8
0	6215	9970.707022852728	7
0	6218	9976.331868920776	6
0	6220	9976.684709952539	7
0	6223	9977.257607046043	6
0	6225	9979.58491698282	5
0	6227	9980.759171582491	6
0	6230	9987.502676792933	7
0	6233	9993.888867618428	6
0	6235	10001.709682801578	7
0	6238	10008.395762744512	6
0	6240	10010.602510714002	5
0	6242	10018.581107263414	4
0	6244	10021.034904798505	5
0	6247	10022.698135037385	6
0	6250	10023.665839035737	7
0	6253	10023.972971459972	6
0	6255	10026.669611834806	5
0	6257	10028.889418402237	4
0	6259	10031.897451128801	3
0	6261	10032.805474849332	2
0	6263	10035.133491940808	3
0	6266	10041.169835686233	4
0	6269	10042.448541941964	3
0	6271	10051.818070774764	4
0	6274	10052.259077996161	5
0	6277	10056.65052368584	6
0	6280	10058.136431108484	7
0	6283	10059.315585600956	8
0	6285	10062.06194144267	7
0	6288	10067.929603506132	6
0	6290	10071.726699634799	7
0	6293	10075.500428858122	6
0	6295	10078.493506794855	5
0	6297	10081.478896504987	6
0	6300	10082.353111937191	7
0	6303	10085.094431424144	6
0	6305	10094.205795244044	5
0	6307	10095.004157296938	4
0	6309	10098.991734220732	5
0	6312	10103.270750313799	4
0	6314	10105.386571510842	5
0	6317	10106.933930126844	6
0	6320	10112.692559709592	7
0	6323	10113.693090956383	8
0	6325	10119.504881718703	7
0	6328	10121.497525910835	6
0	6330	10123.922193524154	5
0	6332	10127.534846065892	4
0	6334	10134.345460779045	5
0	6337	10136.237360603274	6
0	6340	10138.544995155308	7
0	6343	10143.233383579597	8
0	6345	10149.676386392938	7
0	6348	10150.342686170409	8
0	6350	10153.177159232439	7
0	6353	10154.812452326859	6
0	6355	10155.279213035344	7
0	6358	10159.325728983524	6
0	6360	10159.865535083715	5
0	6362	10165.629499322819	4
0	6364	10168.997088854963	3
0	6366	10170.677695605086	4
0	6369	10181.993037206273	5
0	6372	10182.738709798087	4
0	6374	10182.758709287015	5
0	6377	10184.193942338351	6
0	6380	10188.457079375314	5
0	6382	10192.825559367973	6
0	6385	10193.948246335441	5
0	6387	10195.070496883955	4
0	6389	10202.509938141286	3
0	6391	10211.211142958443	4
0	6394	10215.405921745713	5
0	6397	10217.630527308265	4
0	6399	10221.305974042919	5
0	6402	10222.947520730903	6
0	6405	10224.062077026129	5
0	6407	10225.550854927153	4
0	6409	10225.568906476356	5
0	6412	10225.788682858932	4
0	6414	10233.479975889366	5
0	6417	10233.66416389085	6
0	6420	10235.857611128679	5
0	6422	10236.520947866824	4
0	6424	10246.85477669777	3
0	6426	10248.892096718997	4
0	6429	10255.945583925239	5
0	6432	10264.72123440529	4
0	6434	10267.291132822421	3
0	6436	10270.370471633832	4
0	6439	10272.174538243087	5
0	6442	10272.1854260102	4
0	6444	10284.185542080693	5
0	6447	10288.84600253925	6
0	6450	10292.596618441006	7
0	6453	10295.889630556244	6
0	6455	10309.320891215264	5
0	6457	10313.140857464822	4
0	6459	10318.504897844205	5
0	6462	10328.704517953059	6
0	6465	10330.513873964609	7
0	6468	10332.094109528045	8
0	6470	10336.017085870239	7
0	6473	10336.366124327497	8
0	6475	10342.726971916432	7
0	6478	10349.66215324523	8
0	6480	10349.866609905145	7
0	6483	10356.716932084103	6
0	6485	10362.177518018057	5
0	6487	10364.512114510863	6
0	6490	10368.982318037901	5
0	6492	10369.632219639872	4
0	6494	10374.640050531122	3
0	6496	10388.583538394607	4
0	6499	10388.804280630164	5
0	6502	10390.619242931391	6
0	6505	10391.103157582268	5
0	6507	10396.884849597251	4
0	6509	10398.634061384595	3
0	6511	10399.514971241707	4
0	6514	10401.816791512295	5
0	6517	10401.84445518187	4
0	6519	10403.499253398198	3
0	6521	10406.829888983104	4
0	6524	10407.51293443572	5
0	6527	10410.871183236517	6
0	6530	10412.364980125664	5
0	6532	10412.425750715639	4
0	6534	10420.472233146942	5
0	6537	10426.017078946877	6
0	6540	10431.287166169896	7
0	6543	10431.612484481889	6
0	6545	10435.813890117434	7
0	6548	10438.122744984549	8
0	6550	10439.323865911559	7
0	6553	10442.653882055578	6
0	6555	10444.646567064966	7
0	6558	10446.216927029471	8
0	6560	10447.132166991396	9
0	6562	10452.004363812805	10
0	6564	10453.854537507486	9
0	6567	10455.512785774412	10
0	6569	10457.024716485708	9
0	6572	10457.897141156763	8
0	6575	10458.692278547011	9
0	6577	10461.946979362874	8
0	6580	10467.307889457338	7
0	6583	10467.648398689294	6
0	6585	10468.014770640232	5
0	6587	10479.002456343385	4
0	6589	10479.95100329982	5
0	6592	10482.102619803939	6
0	6595	10487.710140494233	7
0	6598	10489.856293879233	6
0	6600	10493.460546886864	5
0	6602	10494.410194640775	6
0	6605	10501.359131920788	5
0	6607	10502.616285666638	6
0	6610	10503.739961869349	5
0	6612	10511.928983723642	6
0	6615	10517.017547426263	7
0	6618	10518.449773582755	8
0	6620	10530.947361393224	7
0	6623	10538.008645956645	6
0	6625	10545.919644585268	5
0	6627	10545.964614965133	6
0	6630	10548.732383282251	7
0	6633	10549.7223483061	8
0	6635	10551.497659782671	7
0	6638	10552.257573414462	6
0	6640	10552.717755119591	5
0	6642	10555.355657302503	4
0	6644	10559.675896664016	3
0	6646	10573.009473871251	2
0	6648	10581.004183762015	1
0	6650	10583.863613548715	2
0	6653	10586.420978140426	1
0	6655	10587.316945581033	2
0	6658	10589.708607983429	1
0	6660	10602.664973630031	0
0	6662	10612.994308932132	1
0	6665	10622.114988164813	2
0	6668	10627.207368692511	1
0	6670	10641.90778645543	2
0	6673	10646.892752346137	1
0	6675	10650.201892384466	0
0	6677	10654.220738362929	1
0	6680	10657.894079469926	2
0	6683	10661.950109822214	3
0	6686	10663.739800694752	4
0	6689	10667.470589456792	3
0	6691	10674.540083194989	4
0	6694	10676.248540256752	5
0	6697	10679.978878314044	6
0	6700	10681.319013566558	7
0	6703	10682.100774001146	6
0	6705	10682.140586915003	7
0	6708	10686.266797743847	6
0	6710	10689.215438785662	5
0	6712	10692.350326563405	6
0	6715	10692.487267686932	7
0	6718	10693.916518980018	6
0	6720	10706.491378152735	7
0	6723	10707.713637698293	8
0	6725	10708.503230264321	7
0	6728	10718.691816048275	8
0	6730	10721.150168214042	7
0	6733	10728.0998882114	6
0	6735	10732.214682099218	5
0	6737	10737.283466568302	4
0	6739	10740.492692666575	3
0	6741	10753.24653826067	2
0	6743	10753.479572500966	3
0	6746	10755.794136960397	4
0	6749	10757.500062249729	5
0	6752	10760.788337954743	4
0	6754	10761.277334957021	3
0	6756	10767.931216885443	4
0	6759	10767.995493765431	5
0	6762	10777.285363176609	6
0	6765	10777.502544150304	5
0	6767	10784.00825839905	6
0	6770	10788.079428450659	5
0	6772	10789.546799459027	6
0	6775	10792.577734821368	5
0	6777	10794.81363245278	6
0	6780	10798.635674740338	7
0	6783	10799.058293772949	6
0	6785	10801.4652282287	7
0	6788	10802.859745827173	6
0	6790	10804.13023356593	5
0	6792	10810.645376257889	4
0	6794	10815.464368118075	3
0	6796	10816.035683749086	4
0	6799	10833.799159431669	3
0	6801	10834.81997794466	2
0	6803	10835.823587759651	1
0	6805	10837.379572036403	2
0	6808	10838.247759579948	3
0	6811	10843.913083607237	2
0	6813	10844.805897352555	1
0	6815	10847.927886812324	2
0	6818	10849.602652446705	3
0	6821	10853.88107065657	4
0	6824	10869.755519798238	5
0	6827	10869.947225423881	6
0	6830	10882.503884978013	7
0	6833	10885.581431287208	6
0	6835	10889.413134902113	5
0	6837	10890.204949659128	4
0	6839	10891.892310893551	5
0	6842	10901.47904972636	4
0	6844	10905.536874062356	5
0	6847	10914.477965175412	6
0	6850	10918.649692693308	5
0	6852	10923.022727246735	6
0	6855	10926.317153247089	7
0	6858	10933.486664628371	6
0	6860	10944.080662346058	5
0	6862	10945.750659211584	4
0	6864	10961.400934755524	5
0	6867	10972.500382400349	4
0	6869	10974.444694618581	3
0	6871	10978.888588749796	2
0	6873	10981.65414770059	1
0	6875	10990.098003061352	2
0	6878	10991.809251683643	3
0	6881	11012.133726294287	4
0	6884	11016.719824778426	5
0	6887	11022.305609983434	6
0	6890	11025.875239827572	5
0	6892	11031.513906527982	4
0	6894	11033.667446758825	5
0	6897	11034.077974535475	4
0	6899	11037.679338607549	3
0	6901	11048.664051129062	4
0	6904	11049.548771570732	3
0	6906	11052.789340383442	2
0	6908	11054.844947462961	3
0	6911	11056.560814014666	2
0	6913	11070.130333795658	3
0	6916	11077.500730537754	4
0	6919	11080.731890409854	3
0	6921	11081.186906810024	4
0	6924	11094.602397879544	3
0	6926	11097.596045647181	2
0	6928	11099.583732461896	1
0	6930	11103.677054795714	2
0	6933	11143.370675730607	3
0	6936	11147.450809357385	4
0	6939	11151.396337480671	5
0	6942	11157.054409567974	4
0	6944	11157.951145558642	3
0	6946	11165.201534584386	2
0	6948	11165.854649812514	3
0	6951	11177.294069506016	4
0	6954	11177.545823060671	3
0	6956	11178.334975333554	4
0	6959	11183.202982186077	5
0	6962	11188.441179807236	6
0	6965	11189.416198665894	7
0	6968	11196.642970280313	6
0	6970	11199.775874327233	7
0	6973	11202.401264731868	6
0	6975	11206.349482168086	7
0	6978	11207.359886656458	6
0	6980	11213.175477974667	5
0	6982	11222.805639547638	6
0	6985	11226.398796974574	5
0	6987	11230.141642795946	4
0	6989	11232.628833950937	5
0	6992	11237.363788859667	4
0	6994	11239.348496122941	3
0	6996	11242.068144506014	4
0	6999	11244.509168435428	3
0	7001	11249.216353042467	2
0	7003	11249.640964299065	3
0	7006	11253.547237108958	4
0	7009	11256.387665187473	5
0	7012	11259.898700096502	6
0	7015	11266.59842600021	5
0	7017	11268.065072582979	4
0	7019	11277.431197897181	5
0	7022	11280.22594951222	6
0	7025	11286.105221719975	5
0	7027	11289.735524346609	4
0	7029	11292.822242562991	5
0	7032	11299.931297042164	6
0	7035	11304.008822006933	7
0	7038	11308.474208341335	6
0	7040	11310.209131665118	5
0	7042	11311.299580120809	6
0	7045	11312.283719995183	5
0	7047	11313.875422613015	6
0	7050	11315.323185729762	5
0	7052	11321.517714164233	6
0	7055	11328.399664046377	5
0	7057	11334.224272563541	4
0	7059	11335.275457084394	5
0	7062	11341.157945263441	4
0	7064	11347.295227869584	5
0	7067	11349.797782423545	6
0	7070	11353.452274363406	5
0	7072	11354.577450280119	6
0	7075	11356.708048496921	5
0	7077	11356.99009949775	6
0	7080	11360.238587309893	7
0	7083	11360.269827272154	6
0	7085	11362.208297986994	5
0	7087	11362.734750661053	6
0	7090	11363.546084193957	7
0	7093	11367.300008672166	6
0	7095	11371.004030081602	7
0	7098	11372.552267639937	6
0	7100	11373.898154931115	5
0	7102	11377.897159639427	4
0	7104	11378.565965844184	3
0	7106	11379.571217337376	2
0	7108	11390.541261218884	1
0	7110	11397.165112136701	0
0	7112	11404.319103068585	1
0	7115	11406.887917452628	2
0	7118	11410.764362193852	3
0	7121	11413.117994259067	2
0	7123	11426.398294954403	3
0	7126	11430.742445442814	4
0	7129	11433.411082761298	5
0	7132	11444.089487181747	4
0	7134	11444.353563343726	5
0	7137	11450.965111491163	4
0	7139	11467.835835755435	5
0	7142	11470.277243732946	6
0	7145	11474.251369017098	7
0	7148	11475.084696618047	6
0	7150	11481.820148090659	5
0	7152	11483.191732371866	6
0	7155	11484.548347532596	5
0	7157	11492.913576658541	4
0	7159	11493.226506489513	5
0	7162	11517.238387280765	4
0	7164	11526.265908275336	5
0	7167	11527.814921001531	6
0	7170	11530.304049743894	7
0	7173	11531.850314008329	8
0	7175	11532.181098762857	7
0	7178	11534.531314962136	8
0	7180	11536.846311769091	7
0	7183	11536.963746680037	8
0	7185	11541.582800342509	9
0	7187	11542.607357929031	8
0	7190	11544.261272137016	9
0	7192	11545.846243728323	8
0	7195	11554.971197710749	7
0	7198	11556.820195877857	6
0	7200	11558.114918563415	7
0	7203	11563.203878709484	6
0	7205	11563.673942524204	5
0	7207	11566.917054268001	6
0	7210	11569.631750923436	7
0	7213	11573.007487181154	6
0	7215	11583.398540658834	5
0	7217	11594.816600815299	6
0	7220	11597.56479690581	5
0	7222	11599.610597590427	4
0	7224	11603.090521625347	5
0	7227	11610.918996649409	4
0	7229	11611.756824255809	5
0	7232	11613.34917872949	6
0	7235	11613.75223483353	5
0	7237	11621.1604713735	6
0	7240	11622.755399996435	5
0	7242	11633.502588442226	4
0	7244	11635.808709962526	5
0	7247	11644.730516167492	4
0	7249	11645.223582528529	3
0	7251	11647.526487387141	2
0	7253	11656.279957659987	1
0	7255	11665.735049556082	2
0	7258	11668.503575129168	3
0	7261	11671.489879447743	4
0	7264	11684.381442063563	3
0	7266	11688.337899069058	2
0	7268	11699.163228435857	3
0	7271	11702.438426637514	2
0	7273	11708.480195352453	1
0	7275	11711.893519573903	2
0	7278	11712.653850517156	3
0	7281	11720.387504318255	4
0	7284	11726.886862458895	5
0	7287	11731.148812901467	4
0	7289	11733.586586920114	3
0	7291	11734.699244996297	4
0	7294	11734.733420895233	3
0	7296	11738.773036387616	4
0	7299	11741.436433302448	3
0	7301	11742.76378080701	4
0	7304	11744.675036616529	5
0	7307	11748.316307718236	4
0	7309	11759.93089922633	3
0	7311	11766.699810377917	2
0	7313	11775.007491856943	3
0	7316	11776.045617773029	4
0	7319	11776.71770147536	3
0	7321	11779.085251995864	4
0	7324	11779.460321640812	5
0	7327	11781.944518176975	6
0	7330	11785.089571483805	7
0	7333	11786.7123055059	6
0	7335	11791.615605944147	5
0	7337	11792.803759364736	6
0	7340	11794.096091034523	5
0	7342	11802.327822937944	6
0	7345	11802.950107257644	7
0	7348	11806.40372348802	6
0	7350	11809.459239301707	7
0	7353	11813.507824675487	8
0	7355	11815.60151638005	9
0	7357	11823.045213893151	10
0	7359	11827.063807770749	9
0	7362	11829.521386571077	10
0	7364	11833.470212629124	9
0	7367	11836.377421882098	10
0	7369	11838.665759454288	9
0	7372	11839.55187694274	8
0	7375	11841.011310464972	7
0	7378	11844.220830803674	6
0	7380	11866.781242584555	7
0	7383	11869.725639616619	6
0	7385	11884.55991795469	7
0	7388	11889.62968737438	6
0	7390	11890.136611445953	5
0	7392	11900.525010909763	4
0	7394	11905.85711558546	5
0	7397	11913.95925838053	4
0	7399	11916.880763999829	3
0	7401	11924.104415524379	4
0	7404	11930.3490849509	3
0	7406	11935.044264668085	4
0	7409	11935.47207433215	5
0	7412	11950.460095707199	6
0	7415	11954.038129392142	5
0	7417	11954.79088298022	4
0	7419	11960.624830905902	5
0	7422	11967.36208269	6
0	7425	11980.893700781478	5
0	7427	11983.150169465843	4
0	7429	11988.222271904548	5
0	7432	11988.412923375011	6
0	7435	11991.236021600257	7
0	7438	11992.292434487524	8
0	7440	11993.2420329536	9
0	7442	12000.888448438082	8
0	7445	12003.097442776272	7
0	7448	12006.457854240047	8
0	7450	12015.881779978085	7
0	7453	12021.79374000254	8
0	7455	12027.895069512418	7
0	7458	12028.900233435325	6
0	7460	12030.245397678298	5
0	7462	12037.308933733802	4
0	7464	12038.650648118651	5
0	7467	12044.750162571034	6
0	7470	12046.252236560651	5
0	7472	12048.830354198505	4
0	7474	12054.99352031349	5
0	7477	12058.663051196397	4
0	7479	12063.954373033236	3
0	7481	12067.942535708846	4
0	7484	12069.907501595534	5
0	7487	12073.807056741911	4
0	7489	12074.654191628681	5
0	7492	12076.612228838453	6
0	7495	12079.546525511705	5
0	7497	12089.241320375684	4
0	7499	12095.747026529425	5
0	7502	12101.10404207965	6
0	7505	12110.401159728444	5
0	7507	12112.826633631475	4
0	7509	12120.119004630446	5
0	7512	12123.998747237278	6
0	7515	12125.82151971056	5
0	7517	12128.634783217232	6
0	7520	12130.084028003914	7
0	7523	12131.397974162412	6
0	7525	12135.858843265754	5
0	7527	12136.213663308258	4
0	7529	12136.520318375447	3
0	7531	12140.080839778924	2
0	7533	12141.939320672963	1
0	7535	12145.196108082332	2
0	7538	12149.9383300907	1
0	7540	12152.592486076961	0
0	7542	12154.476479820259	1
0	7545	12167.665264796241	2
0	7548	12169.297854499408	3
0	7551	12176.539755206405	4
0	7554	12182.58267525086	5
0	7557	12185.734979209651	6
0	7560	12188.343450569756	5
0	7562	12189.454691514133	4
0	7564	12191.126742872754	3
0	7566	12194.463306020501	4
0	7569	12196.298221681523	3
0	7571	12196.709417383547	4
0	7574	12196.879139315895	3
0	7576	12204.801812633692	4
0	7579	12211.31299245254	3
0	7581	12212.969090188153	2
0	7583	12215.530245599475	3
0	7586	12223.042098990947	4
0	7589	12234.352507022419	5
0	7592	12239.124927597048	4
0	7594	12245.668047697836	5
0	7597	12245.829982488511	6
0	7600	12246.309776667402	7
0	7603	12255.562262945337	6
0	7605	12257.493648757511	7
0	7608	12262.33652885207	8
0	7610	12264.140009467614	7
0	7613	12264.180246442476	8
0	7615	12268.07608854536	7
0	7618	12271.681543424317	6
0	7620	12272.632122069821	5
0	7622	12284.788116538789	4
0	7624	12288.914321473209	5
0	7627	12291.364778906005	4
0	7629	12291.674395376267	5
0	7632	12298.550711492463	4
0	7634	12301.725698706301	5
0	7637	12309.3735671336	4
0	7639	12312.579302055345	3
0	7641	12314.003351905702	4
0	7644	12314.663100776043	5
0	7647	12321.899423354501	4
0	7649	12322.395789357955	5
0	7652	12323.463936123384	6
0	7655	12339.647362314444	5
0	7657	12341.724717340276	4
0	7659	12342.566183046185	5
0	7662	12343.306772004617	4
0	7664	12354.59423440477	3
0	7666	12367.616356882919	4
0	7669	12382.909483400293	3
0	7671	12384.327804181597	2
0	7673	12387.543296859904	3
0	7676	12393.662081234643	4
0	7679	12394.994170866279	5
0	7682	12403.562202497318	4
0	7684	12406.637099829994	3
0	7686	12406.801955776121	2
0	7688	12406.882528825147	1
0	7690	12413.715571999824	0
0	7692	12421.54712640763	1
0	7695	12424.656870164637	2
0	7698	12435.479713450981	1
0	7700	12445.525377840609	2
0	7703	12454.649072704726	3
0	7706	12459.634320543191	2
0	7708	12466.399147839906	3
0	7711	12477.344844688103	4
0	7714	12477.815278271002	3
0	7716	12483.291098247196	4
0	7719	12486.469583059505	5
0	7722	12488.097593987379	4
0	7724	12497.864269534496	3
0	7726	12501.854289013914	4
0	7729	12504.33234538487	5
0	7732	12506.319264757857	4
0	7734	12508.174777953847	5
0	7737	12508.775550554238	4
0	7739	12514.152557385861	3
0	7741	12521.551548837424	4
0	7744	12539.427963726849	5
0	7747	12539.428238475452	6
0	7750	12542.341009269042	7
0	7753	12549.472569590414	6
0	7755	12552.960944452322	5
0	7757	12558.724021750046	6
0	7760	12559.698270689721	7
0	7763	12563.797118348478	8
0	7765	12565.16694623116	7
0	7768	12567.752653464924	6
0	7770	12568.330806045871	7
0	7773	12571.987421998592	6
0	7775	12572.481068536971	5
0	7777	12572.549041748999	4
0	7779	12573.862344188727	5
0	7782	12573.940256343448	4
0	7784	12576.663203970176	3
0	7786	12576.803669028878	4
0	7789	12582.295765798052	3
0	7791	12591.77309906845	2
0	7793	12598.887456301548	3
0	7796	12599.29565759898	4
0	7799	12600.108937253171	3
0	7801	12605.483446218093	4
0	7804	12615.585512193721	5
0	7807	12615.800847496004	4
0	7809	12620.673671533001	5
0	7812	12622.426363472107	6
0	7815	12628.293086081457	5
0	7817	12632.027852184011	6
0	7820	12636.552618526554	7
0	7823	12640.751174367399	8
0	7825	12641.60945028737	9
0	7827	12643.894143489033	8
0	7830	12648.216252409291	7
0	7833	12648.705793587713	8
0	7835	12650.794465813385	9
0	7837	12656.04516831788	8
0	7840	12661.068673282863	7
0	7843	12661.48670363131	8
0	7845	12667.264384715687	7
0	7848	12669.523626972378	6
0	7850	12669.98185765184	7
0	7853	12671.139193481729	8
0	7855	12671.184329859649	7
0	7858	12672.421187178475	8
0	7860	12676.735621838931	7
0	7863	12681.791340772254	8
0	7865	12682.815625434176	9
0	7867	12684.342248174111	8
0	7870	12684.472302774929	7
0	7873	12685.836751846038	8
0	7875	12688.609982250354	7
0	7878	12694.940397800323	6
0	7880	12697.851424588804	5
0	7882	12705.389548248289	6
0	7885	12707.163940012873	5
0	7887	12707.953693334572	6
0	7890	12708.990044117757	7
0	7893	12711.511375293592	6
0	7895	12712.458878748474	5
0	7897	12713.989659434354	6
0	7900	12714.155860012198	5
0	7902	12714.504161828258	6
0	7905	12716.272708825254	7
0	7908	12723.300314197767	8
0	7910	12724.80032635018	7
0	7913	12732.649701123062	6
0	7915	12743.334970231376	5
0	7917	12744.345935962687	6
0	7920	12745.930707209084	5
0	7922	12747.009833146274	6
0	7925	12748.880858745616	5
0	7927	12754.956305660327	4
0	7929	12755.400330167221	3
0	7931	12767.426239977297	4
0	7934	12770.299074682463	5
0	7937	12774.727932020285	4
0	7939	12776.634231904202	3
0	7941	12778.468168864834	4
0	7944	12778.643780893231	3
0	7946	12793.80061673229	2
0	7948	12794.441299426154	3
0	7951	12798.012088176529	4
0	7954	12808.839977848694	3
0	7956	12811.75934610891	4
[...]
1	7187	11542.607357929031	1
1	7190	11544.261272137016	2
1	7192	11545.846243728323	1
1	7195	11554.971197710749	0
1	7198	11556.820195877857	0
1	7200	11558.114918563415	0
1	7203	11563.203878709484	0
1	7205	11563.673942524204	0
1	7207	11566.917054268001	0
1	7210	11569.631750923436	0
1	7213	11573.007487181154	0
1	7215	11583.398540658834	0
1	7217	11594.816600815299	0
1	7220	11597.56479690581	0
1	7222	11599.610597590427	0
1	7224	11603.090521625347	0
1	7227	11610.918996649409	0
1	7229	11611.756824255809	0
1	7232	11613.34917872949	0
1	7235	11613.75223483353	0
1	7237	11621.1604713735	0
1	7240	11622.755399996435	0
1	7242	11633.502588442226	0
1	7244	11635.808709962526	0
1	7247	11644.730516167492	0
1	7249	11645.223582528529	0
1	7251	11647.526487387141	0
1	7253	11656.279957659987	0
1	7255	11665.735049556082	0
1	7258	11668.503575129168	0
1	7261	11671.489879447743	0
1	7264	11684.381442063563	0
1	7266	11688.337899069058	0
1	7268	11699.163228435857	0
1	7271	11702.438426637514	0
1	7273	11708.480195352453	0
1	7275	11711.893519573903	0
1	7278	11712.653850517156	0
1	7281	11720.387504318255	0
1	7284	11726.886862458895	0
1	7287	11731.148812901467	0
1	7289	11733.586586920114	0
1	7291	11734.699244996297	0
1	7294	11734.733420895233	0
1	7296	11738.773036387616	0
1	7299	11741.436433302448	0
1	7301	11742.76378080701	0
1	7304	11744.675036616529	0
1	7307	11748.316307718236	0
1	7309	11759.93089922633	0
1	7311	11766.699810377917	0
1	7313	11775.007491856943	0
1	7316	11776.045617773029	0
1	7319	11776.71770147536	0
1	7321	11779.085251995864	0
1	7324	11779.460321640812	0
1	7327	11781.944518176975	0
1	7330	11785.089571483805	0
1	7333	11786.7123055059	0
1	7335	11791.615605944147	0
1	7337	11792.803759364736	0
1	7340	11794.096091034523	0
1	7342	11802.327822937944	0
1	7345	11802.950107257644	0
1	7348	11806.40372348802	0
1	7350	11809.459239301707	0
1	7353	11813.507824675487	1
1	7355	11815.60151638005	2
1	7357	11823.045213893151	3
1	7359	11827.063807770749	2
1	7362	11829.521386571077	3
1	7364	11833.470212629124	2
1	7367	11836.377421882098	3
1	7369	11838.665759454288	2
1	7372	11839.55187694274	1
1	7375	11841.011310464972	0
1	7378	11844.220830803674	0
1	7380	11866.781242584555	0
1	7383	11869.725639616619	0
1	7385	11884.55991795469	0
1	7388	11889.62968737438	0
1	7390	11890.136611445953	0
1	7392	11900.525010909763	0
1	7394	11905.85711558546	0
1	7397	11913.95925838053	0
1	7399	11916.880763999829	0
1	7401	11924.104415524379	0
1	7404	11930.3490849509	0
1	7406	11935.044264668085	0
1	7409	11935.47207433215	0
1	7412	11950.460095707199	0
1	7415	11954.038129392142	0
1	7417	11954.79088298022	0
1	7419	11960.624830905902	0
1	7422	11967.36208269	0
1	7425	11980.893700781478	0
1	7427	11983.150169465843	0
1	7429	11988.222271904548	0
1	7432	11988.412923375011	0
1	7435	11991.236021600257	0
1	7438	11992.292434487524	1
1	7440	11993.2420329536	2
1	7442	12000.888448438082	1
1	7445	12003.097442776272	0
1	7448	12006.457854240047	1
1	7450	12015.881779978085	0
1	7453	12021.79374000254	1
1	7455	12027.895069512418	0
1	7458	12028.900233435325	0
1	7460	12030.245397678298	0
1	7462	12037.308933733802	0
1	7464	12038.650648118651	0
1	7467	12044.750162571034	0
1	7470	12046.252236560651	0
1	7472	12048.830354198505	0
1	7474	12054.99352031349	0
1	7477	12058.663051196397	0
1	7479	12063.954373033236	0
1	7481	12067.942535708846	0
1	7484	12069.907501595534	0
1	7487	12073.807056741911	0
1	7489	12074.654191628681	0
1	7492	12076.612228838453	0
1	7495	12079.546525511705	0
1	7497	12089.241320375684	0
1	7499	12095.747026529425	0
1	7502	12101.10404207965	0
1	7505	12110.401159728444	0
1	7507	12112.826633631475	0
1	7509	12120.119004630446	0
1	7512	12123.998747237278	0
1	7515	12125.82151971056	0
1	7517	12128.634783217232	0
1	7520	12130.084028003914	0
1	7523	12131.397974162412	0
1	7525	12135.858843265754	0
1	7527	12136.213663308258	0
1	7529	12136.520318375447	0
1	7531	12140.080839778924	0
1	7533	12141.939320672963	0
1	7535	12145.196108082332	0
1	7538	12149.9383300907	0
1	7540	12152.592486076961	0
1	7542	12154.476479820259	0
1	7545	12167.665264796241	0
1	7548	12169.297854499408	0
1	7551	12176.539755206405	0
1	7554	12182.58267525086	0
1	7557	12185.734979209651	0
1	7560	12188.343450569756	0
1	7562	12189.454691514133	0
1	7564	12191.126742872754	0
1	7566	12194.463306020501	0
1	7569	12196.298221681523	0
1	7571	12196.709417383547	0
1	7574	12196.879139315895	0
1	7576	12204.801812633692	0
1	7579	12211.31299245254	0
1	7581	12212.969090188153	0
1	7583	12215.530245599475	0
1	7586	12223.042098990947	0
1	7589	12234.352507022419	0
1	7592	12239.124927597048	0
1	7594	12245.668047697836	0
1	7597	12245.829982488511	0
1	7600	12246.309776667402	0
1	7603	12255.562262945337	0
1	7605	12257.493648757511	0
1	7608	12262.33652885207	1
1	7610	12264.140009467614	0
1	7613	12264.180246442476	1
1	7615	12268.07608854536	0
1	7618	12271.681543424317	0
1	7620	12272.632122069821	0
1	7622	12284.788116538789	0
1	7624	12288.914321473209	0
1	7627	12291.364778906005	0
1	7629	12291.674395376267	0
1	7632	12298.550711492463	0
1	7634	12301.725698706301	0
1	7637	12309.3735671336	0
1	7639	12312.579302055345	0
1	7641	12314.003351905702	0
1	7644	12314.663100776043	0
1	7647	12321.899423354501	0
1	7649	12322.395789357955	0
1	7652	12323.463936123384	0
1	7655	12339.647362314444	0
1	7657	12341.724717340276	0
1	7659	12342.566183046185	0
1	7662	12343.306772004617	0
1	7664	12354.59423440477	0
1	7666	12367.616356882919	0
1	7669	12382.909483400293	0
1	7671	12384.327804181597	0
1	7673	12387.543296859904	0
1	7676	12393.662081234643	0
1	7679	12394.994170866279	0
1	7682	12403.562202497318	0
1	7684	12406.637099829994	0
1	7686	12406.801955776121	0
1	7688	12406.882528825147	0
1	7690	12413.715571999824	0
1	7692	12421.54712640763	0
1	7695	12424.656870164637	0
1	7698	12435.479713450981	0
1	7700	12445.525377840609	0
1	7703	12454.649072704726	0
1	7706	12459.634320543191	0
1	7708	12466.399147839906	0
1	7711	12477.344844688103	0
1	7714	12477.815278271002	0
1	7716	12483.291098247196	0
1	7719	12486.469583059505	0
1	7722	12488.097593987379	0
1	7724	12497.864269534496	0
1	7726	12501.854289013914	0
1	7729	12504.33234538487	0
1	7732	12506.319264757857	0
1	7734	12508.174777953847	0
1	7737	12508.775550554238	0
1	7739	12514.152557385861	0
1	7741	12521.551548837424	0
1	7744	12539.427963726849	0
1	7747	12539.428238475452	0
1	7750	12542.341009269042	0
1	7753	12549.472569590414	0
1	7755	12552.960944452322	0
1	7757	12558.724021750046	0
1	7760	12559.698270689721	0
1	7763	12563.797118348478	1
1	7765	12565.16694623116	0
1	7768	12567.752653464924	0
1	7770	12568.330806045871	0
1	7773	12571.987421998592	0
1	7775	12572.481068536971	0
1	7777	12572.549041748999	0
1	7779	12573.862344188727	0
1	7782	12573.940256343448	0
1	7784	12576.663203970176	0
1	7786	12576.803669028878	0
1	7789	12582.295765798052	0
1	7791	12591.77309906845	0
1	7793	12598.887456301548	0
1	7796	12599.29565759898	0
1	7799	12600.108937253171	0
1	7801	12605.483446218093	0
1	7804	12615.585512193721	0
1	7807	12615.800847496004	0
1	7809	12620.673671533001	0
1	7812	12622.426363472107	0
1	7815	12628.293086081457	0
1	7817	12632.027852184011	0
1	7820	12636.552618526554	0
1	7823	12640.751174367399	1
1	7825	12641.60945028737	2
1	7827	12643.894143489033	1
1	7830	12648.216252409291	0
1	7833	12648.705793587713	1
1	7835	12650.794465813385	2
1	7837	12656.04516831788	1
1	7840	12661.068673282863	0
1	7843	12661.48670363131	1
1	7845	12667.264384715687	0
1	7848	12669.523626972378	0
1	7850	12669.98185765184	0
1	7853	12671.139193481729	1
1	7855	12671.184329859649	0
1	7858	12672.421187178475	1
1	7860	12676.735621838931	0
1	7863	12681.791340772254	1
1	7865	12682.815625434176	2
1	7867	12684.342248174111	1
1	7870	12684.472302774929	0
1	7873	12685.836751846038	1
1	7875	12688.609982250354	0
1	7878	12694.940397800323	0
1	7880	12697.851424588804	0
1	7882	12705.389548248289	0
1	7885	12707.163940012873	0
1	7887	12707.953693334572	0
1	7890	12708.990044117757	0
1	7893	12711.511375293592	0
1	7895	12712.458878748474	0
1	7897	12713.989659434354	0
1	7900	12714.155860012198	0
1	7902	12714.504161828258	0
1	7905	12716.272708825254	0
1	7908	12723.300314197767	1
1	7910	12724.80032635018	0
1	7913	12732.649701123062	0
1	7915	12743.334970231376	0
1	7917	12744.345935962687	0
1	7920	12745.930707209084	0
1	7922	12747.009833146274	0
1	7925	12748.880858745616	0
1	7927	12754.956305660327	0
1	7929	12755.400330167221	0
1	7931	12767.426239977297	0
1	7934	12770.299074682463	0
1	7937	12774.727932020285	0
1	7939	12776.634231904202	0
1	7941	12778.468168864834	0
1	7944	12778.643780893231	0
1	7946	12793.80061673229	0
1	7948	12794.441299426154	0
1	7951	12798.012088176529	0
1	7954	12808.839977848694	0
1	7956	12811.75934610891	0
1	7959	12812.237512354269	0
1	7961	12817.017978802707	0
1	7964	12821.742420970403	0
1	7966	12835.129735081069	0
1	7969	12840.976772353442	0
1	7972	12856.564343394303	0
1	7974	12860.942945407384	0
1	7977	12861.473549765321	0
1	7980	12861.667125241748	0
1	7983	12863.339090312359	1
1	7985	12865.65008806335	2
1	7987	12867.558641625188	1
1	7990	12870.374407467225	0
1	7993	12873.24671779027	1
1	7995	12873.587084837522	2
1	7997	12875.808366224057	3
1	7999	12881.032619108436	2
1	8002	12882.114332140187	3
1	8004	12882.942324412732	4
1	8006	12883.340880635189	3
1	8009	12885.985078083455	2
1	8012	12886.039434505937	1
1	8015	12888.448580524087	0
1	8018	12892.540170448567	1
1	8020	12898.744401952625	0
1	8023	12901.990599886607	0
1	8025	12902.720066968031	0
1	8027	12904.026534993467	0
1	8030	12918.493331982434	0
1	8032	12926.20741729889	0
1	8035	12927.420296053412	0
1	8038	12937.658481207866	0
1	8040	12938.747836280104	0
1	8042	12940.60044352123	0
1	8044	12946.729051472154	0
1	8047	12946.797424872876	0
1	8049	12947.367679717964	0
1	8052	12950.567534273298	0
1	8055	12953.061303387455	0
1	8057	12970.349685156473	0
1	8059	12972.087406942915	0
1	8062	12975.945180206053	0
1	8064	12980.021848984192	0
1	8066	13001.930668618171	0
1	8069	13004.727834199531	0
1	8072	13009.609636659624	0
1	8074	13009.8410669044	0
1	8077	13018.604334941415	0
1	8079	13022.923361072772	0
1	8081	13023.673866831465	0
1	8084	13034.230509824701	0
1	8087	13036.249464712091	0
1	8090	13037.027037865626	0
1	8093	13038.617066404727	0
1	8095	13039.216081651493	0
1	8097	13039.703509838624	0
1	8099	13045.640977819583	0
1	8102	13048.531532622732	0
1	8105	13051.183530608233	0
1	8107	13053.174752441642	0
1	8109	13056.815368110992	0
1	8111	13057.091761316017	0
1	8114	13058.604959157625	0
1	8117	13059.766463417097	0
1	8119	13071.878867709571	0
1	8121	13073.943615765424	0
1	8124	13077.173561184848	0
1	8127	13077.957457372338	0
1	8130	13078.921802026108	0
1	8132	13081.159938471829	0
1	8134	13082.860671675681	0
1	8137	13088.943661926612	0
1	8140	13093.565533805796	0
1	8143	13094.893055709629	0
1	8145	13095.648508974285	0
1	8147	13099.627899333394	0
1	8149	13099.816512451977	0
1	8151	13101.918219171255	0
1	8153	13103.470005455619	0
1	8156	13113.407913298729	0
1	8158	13123.774722290912	0
1	8161	13126.394294692153	0
1	8164	13126.860444132051	0
1	8167	13133.493757157226	0
1	8170	13134.413916043082	0
1	8173	13135.416299406936	1
1	8175	13139.807654962016	2
1	8177	13140.819500082839	1
1	8180	13144.039870760137	2
1	8182	13146.878806095129	1
1	8185	13156.58325723183	2
1	8187	13164.338629609743	3
1	8189	13180.255174206612	4
1	8191	13180.795078076117	3
1	8194	13187.115161131196	4
1	8196	13190.767734794315	3
1	8199	13198.205634481246	2
1	8202	13199.332926667441	1
1	8205	13214.150162950781	0
1	8208	13215.036986421104	0
1	8210	13215.330301152441	0
1	8212	13221.028289382729	0
1	8214	13223.098549355518	0
1	8217	13224.502904309084	0
1	8220	13231.942250559625	0
1	8222	13238.93372708652	0
1	8225	13240.574374804507	0
1	8228	13240.703715253004	1
1	8230	13245.091345995316	2
1	8232	13246.317922816214	1
1	8235	13257.149313352991	0
1	8238	13262.40294800061	1
1	8240	13262.777271172622	2
1	8242	13266.669470229572	3
1	8244	13272.112195907868	2
1	8247	13273.948683560318	1
1	8250	13280.694825495317	0
1	8253	13283.581320856946	0
1	8255	13288.278097230429	0
1	8258	13288.639375832327	0
1	8260	13291.676641487271	0
1	8263	13292.046836382981	0
1	8265	13292.128951877726	0
1	8268	13293.026751373202	1
1	8270	13298.067202544954	0
1	8273	13305.899322579584	1
1	8275	13308.306292287181	2
1	8277	13309.453346886554	1
1	8280	13313.808648644418	0
1	8283	13324.81037509584	0
1	8285	13326.607265043383	0
1	8287	13338.448218230412	0
1	8290	13343.793415943784	0
1	8292	13347.583596215047	0
1	8295	13350.416239609087	0
1	8297	13355.077384091976	0
1	8299	13358.474016283622	0
1	8302	13361.494817567458	0
1	8304	13362.82398183885	0
1	8306	13363.415965890276	0
1	8309	13365.848174256774	0
1	8312	13366.168344408089	0
1	8315	13366.303534807601	0
1	8317	13375.479469537022	0
1	8319	13377.381144551439	0
1	8322	13379.281982806792	0
1	8324	13380.811298424837	0
1	8327	13385.625794520023	0
1	8330	13387.73283825611	0
1	8332	13392.672536338451	0
1	8335	13395.888752766353	0
1	8338	13402.803470029079	0
1	8340	13402.94834693995	0
1	8342	13403.423433685791	0
1	8344	13404.57393702548	0
1	8346	13404.834673425833	0
1	8348	13407.84021166999	0
1	8351	13414.765745973427	0
1	8353	13418.021373863753	0
1	8355	13424.33937768656	0
1	8358	13432.519133892145	0
1	8361	13445.654603737624	0
1	8364	13458.618010980098	0
1	8366	13462.203232533822	0
1	8369	13464.873333019196	0
1	8372	13465.619777238128	0
1	8374	13472.838861978986	0
1	8377	13475.424571703732	0
1	8380	13479.105270438949	0
1	8382	13486.979136013711	0
1	8385	13488.064143408859	0
1	8387	13491.693850024635	0
1	8390	13492.8334550731	0
1	8392	13498.790495905695	0
1	8395	13499.768872557269	0
1	8398	13502.420991638631	1
1	8400	13506.175012572695	2
1	8402	13523.406267395263	1
1	8405	13524.045443295781	2
1	8407	13528.195316681657	1
1	8410	13529.488489797039	2
1	8412	13532.559749021763	3
1	8414	13539.20833032173	2
1	8417	13541.622786642097	3
1	8419	13550.703466539436	2
1	8422	13552.461487433246	1
1	8425	13555.17479106914	0
1	8428	13557.479879800485	1
1	8430	13558.038611235317	2
1	8432	13563.843945951561	3
1	8434	13565.242905879074	4
1	8436	13568.874521654036	3
1	8439	13574.564097020018	2
1	8442	13576.436355802014	1
1	8445	13579.562575938519	0
1	8448	13592.310042367437	0
1	8450	13597.937105645865	0
1	8452	13598.493295445378	0
1	8454	13598.553824280456	0
1	8457	13602.369384559605	0
1	8460	13602.670975591791	0
1	8462	13605.778807250775	0
1	8465	13607.89318614309	0
1	8467	13609.027462894171	0
1	8469	13610.439534998103	0
1	8471	13610.846879778573	0
1	8474	13615.307894236173	0
1	8476	13627.35090869222	0
1	8478	13631.649008204598	0
1	8481	13632.842691181046	0
1	8483	13633.509941821701	0
1	8485	13634.204679053605	0
1	8487	13657.095867986435	0
1	8490	13660.848829685087	0
1	8493	13662.302770592862	0
1	8495	13667.83800334262	0
1	8497	13678.605201097739	0
1	8500	13683.870537585753	0
1	8503	13691.817193343822	0
1	8506	13694.730657451845	0
1	8508	13703.700404544046	0
1	8511	13705.076796560292	0
1	8513	13709.629588959544	0
1	8515	13716.904204184322	0
1	8518	13717.410137494355	0
1	8521	13717.551090676847	0
1	8524	13728.784505434155	0
1	8527	13732.973252242216	0
1	8530	13740.950475839497	0
1	8532	13741.992047150761	0
1	8534	13742.715288221558	0
1	8537	13754.595997080069	0
1	8539	13757.738011946271	0
1	8541	13759.461281415167	0
1	8543	13763.622637779698	0
1	8546	13769.173115112222	0
1	8548	13773.131220282225	0
1	8550	13785.665586425589	0
1	8553	13792.725561275795	0
1	8556	13799.865687430021	0
1	8558	13800.392159720125	0
1	8561	13800.832651470667	0
1	8564	13804.217817735133	0
1	8566	13805.708059718748	0
1	8568	13812.88534416978	0
1	8570	13820.147802873876	0
1	8573	13828.113352160717	0
1	8576	13828.68604196606	0
1	8579	13832.251648980876	0
1	8582	13832.643495054904	0
1	8584	13836.6577604652	0
1	8586	13843.739936267818	0
1	8589	13849.466489344628	0
1	8592	13850.388384973192	0
1	8595	13852.783635711716	0
1	8598	13853.492546994565	1
1	8600	13854.690307543239	2
1	8602	13855.935345970921	3
1	8604	13859.559028285892	4
1	8606	13860.044346907639	5
1	8608	13860.867244719073	6
1	8610	13866.552308260714	5
1	8613	13867.114005546834	4
1	8616	13871.320938461809	3
1	8619	13874.931430202408	2
1	8622	13881.407790803249	3
1	8624	13882.188524570255	2
1	8627	13883.876706780059	1
1	8630	13885.315474969159	2
1	8632	13887.767933866891	3
1	8634	13890.91096050474	2
1	8637	13891.711138460308	1
1	8640	13893.859377791822	0
1	8643	13899.980649384237	0
1	8645	13902.148626007614	0
1	8647	13908.85052652562	0
1	8650	13910.247445004988	0
1	8653	13916.636096583957	1
1	8655	13917.93210983183	2
1	8657	13919.891260128696	3
1	8659	13924.604912873561	2
1	8662	13930.374610988235	3
1	8664	13931.304603691183	2
1	8667	13932.929931546546	1
1	8670	13933.475008483676	0
1	8673	13941.126633741244	1
1	8675	13941.497533965918	0
1	8678	13941.602262321954	1
1	8680	13946.251290009468	0
1	8683	13948.074472957396	0
1	8685	13952.237732683294	0
1	8688	13961.50614789838	1
1	8690	13972.453108546263	0
1	8693	13974.294504088591	1
1	8695	13977.459235561007	0
1	8698	13981.256740113474	0
1	8700	13995.4013328356	0
1	8702	13995.992979349938	0
1	8705	14005.136269887336	0
1	8708	14013.860612410683	1
1	8710	14016.893416501133	0
1	8713	14024.589338986434	0
1	8715	14025.190426334944	0
1	8717	14042.223175576904	0
1	8719	14044.757704781728	0
1	8722	14048.029245205823	0
1	8725	14049.581601823109	0
1	8728	14050.604962505847	0
1	8730	14053.504496724909	0
1	8733	14057.798984824855	1
1	8735	14063.111072712205	0
1	8738	14064.227247475694	0
1	8740	14070.366010698896	0
1	8743	14075.846410123955	1
1	8745	14077.100885253263	2
1	8747	14077.473526376233	1
1	8750	14078.000666395317	0
1	8753	14078.919457401975	1
1	8755	14079.297563848525	0
1	8758	14080.694278441697	1
1	8760	14084.55794800219	2
1	8762	14085.252479817651	1
1	8765	14096.61253435432	0
1	8768	14106.128434951952	1
1	8770	14114.141297370373	0
1	8773	14117.384245962716	0
1	8775	14127.802252870392	0
1	8777	14128.955176107838	0
1	8780	14135.09288405941	0
1	8783	14138.305575837755	0
1	8785	14139.256984907293	0
1	8787	14140.468134842217	0
1	8789	14142.078735955967	0
1	8792	14147.312768744192	0
1	8795	14150.698926357415	0
1	8797	14159.315563770444	0
1	8799	14159.871425754493	0
1	8802	14160.53184425133	0
1	8805	14162.03608872246	0
1	8807	14163.055461663751	0
1	8809	14163.188981552171	0
1	8812	14164.982235705217	0
1	8814	14167.035485859875	0
1	8817	14171.488386812077	0
1	8819	14174.802979227593	0
1	8822	14182.2366269093	0
1	8825	14184.298525599285	0
1	8828	14184.523975620912	0
1	8830	14184.9467536566	0
1	8833	14186.910436571262	1
1	8835	14189.456951050824	2
1	8837	14191.534991477834	1
1	8840	14194.359256840973	0
1	8843	14201.064476615757	0
1	8845	14207.238606632016	0
1	8847	14213.606524783045	0
1	8849	14216.715222791241	0
1	8851	14217.15800205909	0
1	8854	14220.61710461011	0
1	8856	14233.417750179823	0
1	8859	14236.229773567784	0
1	8862	14239.425452162099	0
1	8865	14241.473324365362	0
1	8868	14243.585761934586	1
1	8870	14245.271737857356	0
1	8873	14245.758871910444	0
1	8875	14246.214253835438	0
1	8878	14249.921014974195	1
1	8880	14250.141462426955	2
1	8882	14250.38141474059	3
1	8884	14254.66067174588	2
1	8887	14257.089417809403	3
1	8889	14257.214539434392	2
1	8892	14263.469189917491	3
1	8894	14264.895785594611	4
1	8896	14274.64274210316	3
1	8899	14274.69947893746	2
1	8902	14278.886861836498	1
1	8905	14282.668826496626	2
1	8907	14286.855647565346	3
1	8909	14286.880765980624	4
1	8911	14287.873884287948	3
1	8914	14297.592559671552	4
1	8916	14299.315131085201	3
1	8919	14302.89566086154	2
1	8922	14305.373371501924	3
1	8924	14306.253007668395	2
1	8927	14310.059565069931	1
1	8930	14310.06156395573	0
1	8933	14316.014579792883	0
1	8935	14316.51722393483	0
1	8937	14316.888867988177	0
1	8939	14317.000090035469	0
1	8941	14321.28018901496	0
1	8944	14321.491234130963	0
1	8947	14323.563134175523	0
1	8950	14330.191556032619	0
1	8953	14335.972256969615	1
1	8955	14337.810985715361	0
1	8958	14349.688018547962	0
1	8960	14352.034970553268	0
1	8963	14352.704938230724	1
1	8965	14361.946687548956	0
1	8968	14362.499239801865	1
1	8970	14363.58224713939	2
1	8972	14367.423794297669	1
1	8975	14372.510839351585	0
1	8978	14380.974074581907	0
1	8980	14384.9316689275	0

