version 2
run POLICY_1-26-20191213-12:40:10-1219
attr configname POLICY_1
attr datetime 20191213-12:40:10
attr experiment POLICY_1
attr inifile omnetpp.ini
attr iterationvars ""
attr iterationvarsf ""
attr measurement ""
attr network Carrefour
attr processid 1219
attr repetition 26
attr replication #26
attr resultdir results
attr runnumber 26
attr seedset 26
param **.policy 1
param **.delta 0s
param **.tillsNumber 7
param **.capacity 0.3
param **.meanInterArrivalTime 8s
param **.meanItemsInACart 12
param **.interArrivalDistribution 0
param **.itemsInCartDistribution 0

vector 0 Carrefour.decider stats_numCustomers:vector ETV
attr "" ""
attr source numCustomers
vector 1 Carrefour.decider stats_numCustomersQueue:vector ETV
attr "" ""
attr source numCustomersQueue
0	725	1207.021721306994	9
0	727	1208.221701817427	8
0	730	1210.464811608312	9
0	732	1210.997036817843	8
0	735	1213.972239382671	7
0	738	1215.219477823108	8
0	740	1216.979489478416	9
0	742	1217.136894191844	10
0	744	1221.530819531316	9
0	747	1221.741066220739	10
0	749	1225.926679892978	9
0	752	1226.101449067473	8
0	755	1230.014084711206	7
0	758	1233.676172755511	8
0	760	1247.221329523367	7
0	763	1251.222749791398	6
0	765	1253.774897336259	5
0	767	1254.906449219593	6
0	770	1264.416968442088	5
0	772	1269.005763530261	6
0	775	1271.523684529814	5
0	777	1271.636524095853	6
0	780	1275.877565201657	5
0	782	1283.139086717748	6
0	785	1287.606393364836	7
0	788	1287.712162497587	6
0	790	1293.150145334435	5
0	792	1300.530394108064	6
0	795	1305.536769536152	7
0	798	1307.561449008711	6
0	800	1308.331721956007	5
0	802	1308.54187626247	6
0	805	1311.954195651622	5
0	807	1313.072770289427	4
0	809	1323.996882755447	5
0	812	1325.005733671477	4
0	814	1326.508015696176	3
0	816	1329.325308458568	2
0	818	1330.472540784758	3
0	821	1339.972641044658	2
0	823	1358.185827173875	1
0	825	1361.301050821564	0
0	827	1363.749669661052	1
0	830	1367.816290922033	2
0	833	1373.012818262161	3
0	836	1376.755059973948	4
0	839	1382.91017923792	5
0	842	1385.309398083364	6
0	845	1387.955994493254	5
0	847	1397.502990844641	6
0	850	1414.148549729633	7
0	853	1416.155029941576	6
0	855	1422.728620144175	5
0	857	1424.110406815039	4
0	859	1424.218460696606	3
0	861	1427.640193008748	4
0	864	1427.872831886709	5
0	867	1429.132194649459	6
0	870	1430.817969465601	5
0	872	1431.692910327162	6
0	875	1435.056277409326	7
0	878	1437.881869491755	6
0	880	1440.341420254016	7
0	883	1448.7109706395	6
0	885	1449.85724451593	7
0	888	1453.814005503631	6
0	890	1458.994275374011	5
0	892	1467.974892352526	4
0	894	1469.179113322168	3
0	896	1472.403928631277	4
0	899	1474.072129782032	5
0	902	1474.792897776923	4
0	904	1478.39556202346	5
0	907	1483.257554322348	6
0	910	1487.046822059467	7
0	913	1488.375465436261	6
0	915	1489.75695678613	5
0	917	1494.832902399692	4
0	919	1511.01530122303	3
0	921	1514.805293829782	2
0	923	1514.906953286877	1
0	925	1515.212908671411	2
0	928	1518.961523052443	1
0	930	1532.343819646137	2
0	933	1556.952064665963	1
0	935	1573.746656380022	2
0	938	1576.791045362084	1
0	940	1583.700735649022	2
0	943	1594.807375205455	3
0	946	1599.235897691179	4
0	949	1604.98015408082	5
0	952	1609.12475054911	6
0	955	1614.909847259758	7
0	958	1615.431531726608	6
0	960	1623.431554233375	5
0	962	1624.260692683636	6
0	965	1624.834139959496	7
0	968	1625.417973352876	6
0	970	1626.657408423919	5
0	972	1626.964365478664	4
0	974	1630.079755302558	5
0	977	1633.526602388204	4
0	979	1645.769180879332	3
0	981	1658.453896993949	4
0	984	1662.698289182263	5
0	987	1664.77856201239	4
0	989	1677.030389208763	3
0	991	1681.002495196487	2
0	993	1687.475167038096	3
0	996	1698.750149659204	4
0	999	1710.86376448245	5
0	1002	1711.181752465471	4
0	1004	1714.809175572589	5
0	1007	1729.906249692027	6
0	1010	1730.471426958721	7
0	1013	1734.549579124191	8
0	1015	1739.095937216631	9
0	1017	1742.612804074833	8
0	1020	1743.240922179495	7
0	1023	1750.816546117758	6
0	1025	1751.849331531633	7
0	1028	1756.865824842925	8
0	1030	1757.00845450275	9
0	1032	1757.653477921164	10
0	1034	1759.119513940541	11
0	1036	1762.937777335984	12
0	1038	1764.728653096572	13
0	1040	1767.274462226531	12
0	1043	1767.622578339398	13
0	1045	1769.826061114166	14
0	1047	1772.590550134314	15
0	1049	1773.23216508204	16
0	1051	1775.832448173537	17
0	1053	1776.239736144555	16
0	1056	1777.502777846558	15
0	1059	1786.361644649285	16
0	1061	1786.631941804414	17
0	1063	1787.502927974507	18
0	1065	1793.996250246807	17
0	1068	1794.544408862124	16
0	1071	1796.08355355075	15
0	1074	1797.513542294895	16
0	1076	1798.135771205292	15
0	1079	1799.653576132518	14
0	1082	1800.857550856117	13
0	1085	1801.798126971628	14
0	1087	1804.969623390438	15
0	1089	1806.379964962386	14
0	1092	1806.759699698518	13
0	1095	1806.969483094045	14
0	1097	1810.816334927241	15
0	1099	1813.171455437443	14
0	1102	1815.526338889708	13
0	1105	1815.876159088381	12
0	1108	1816.647901147385	11
0	1111	1817.751141858592	10
0	1114	1833.313283228951	11
0	1116	1833.830668900065	12
0	1118	1835.424114551634	11
0	1121	1836.627686742174	10
0	1124	1839.470167397963	11
0	1126	1840.925926804316	12
0	1128	1848.127599563787	11
0	1131	1848.434330053136	12
0	1133	1852.876889983997	13
0	1135	1859.886321118099	14
0	1137	1863.51783910209	13
0	1140	1863.862593076131	14
0	1142	1869.309309158641	15
0	1144	1870.299196736548	14
0	1147	1874.066372027084	15
0	1149	1875.526357389016	16
0	1151	1875.647708102403	15
0	1154	1878.281247852183	16
0	1156	1885.284655705641	15
0	1159	1891.109714942877	16
0	1161	1893.498218836238	15
0	1164	1894.76265762027	16
0	1166	1900.949054076267	15
0	1169	1904.57349702283	14
0	1172	1907.943100249619	15
0	1174	1908.813075006921	14
0	1177	1910.898933007316	13
0	1180	1912.625759968071	12
0	1183	1913.793690416152	13
0	1185	1917.786241078131	12
0	1188	1922.324303412824	13
0	1190	1924.454103057474	12
0	1193	1931.763664154976	13
0	1195	1932.863492998066	14
0	1197	1934.981367784803	15
0	1199	1941.835224610985	16
0	1201	1944.123967749943	15
0	1204	1947.557656568435	14
0	1207	1950.739966548545	15
0	1209	1951.219957836438	14
0	1212	1953.388099495827	15
0	1214	1956.501644438467	16
0	1216	1958.913721312837	17
0	1218	1959.617579035168	16
0	1221	1965.622982281995	15
0	1224	1966.10622482107	14
0	1227	1967.267305681199	13
0	1230	1979.489736831553	12
0	1233	1983.844399588091	13
0	1235	1991.024152137228	12
0	1238	1991.41605123214	13
0	1240	1995.066944526339	12
0	1243	1995.207947282871	13
0	1245	1996.305291735752	12
0	1248	1997.491181139044	11
0	1251	1998.323637737726	10
0	1254	2000.894873582221	9
0	1257	2000.90165253313	8
0	1260	2000.997677296434	7
0	1263	2003.043448099854	8
0	1265	2008.334990379076	9
0	1267	2012.117856790256	10
0	1269	2020.957235802936	11
0	1271	2021.826550479934	10
0	1274	2025.279076562126	11
0	1276	2030.267824742116	12
0	1278	2030.747298506501	11
0	1281	2034.057201498219	12
0	1283	2034.076970348802	11
0	1286	2038.593104211248	10
0	1289	2043.782915525093	11
0	1291	2045.354848086812	12
0	1293	2046.927595292084	13
0	1295	2047.216114101135	14
0	1297	2052.184664365026	15
0	1299	2054.888761795938	14
0	1302	2055.628252674321	13
0	1305	2056.279834078298	12
0	1308	2056.947325744761	13
0	1310	2061.574673043476	14
0	1312	2069.946435129468	13
0	1315	2075.532663394781	14
0	1317	2076.648428167484	13
0	1320	2079.252445718274	12
0	1323	2087.203544577813	11
0	1326	2089.91996780571	10
0	1329	2094.688278964408	11
0	1331	2097.053078904368	10
0	1334	2098.102388797467	11
0	1336	2100.444028294082	12
0	1338	2101.649521162137	13
0	1340	2105.828797564013	12
0	1343	2108.552524009516	13
0	1345	2110.624169555135	12
0	1348	2111.906467643345	13
0	1350	2117.586956003098	14
0	1352	2119.538303822342	13
0	1355	2119.641947943091	12
0	1358	2120.517968622643	11
0	1361	2125.489209853111	10
0	1364	2128.810936833304	9
0	1367	2144.782602309407	10
0	1369	2147.457219273318	11
0	1371	2149.592820753591	12
0	1373	2154.534194166661	11
0	1376	2155.593845400786	12
0	1378	2159.007968616157	11
0	1381	2159.675302878431	12
0	1383	2164.239811388713	11
0	1386	2169.699517725742	10
0	1389	2172.327039468257	9
0	1392	2173.978182365372	8
0	1395	2178.706008799558	7
0	1398	2180.293305864069	6
0	1400	2184.614398630546	7
0	1403	2188.094571495473	6
0	1405	2193.745899039737	5
0	1407	2209.701827955613	6
0	1410	2210.818627584819	5
0	1412	2212.039316191932	6
0	1415	2220.858789599727	7
0	1418	2225.828495154112	6
0	1420	2233.454871591173	5
0	1422	2237.733480059033	4
0	1424	2239.528273850124	5
0	1427	2243.729038525336	6
0	1430	2245.699295958865	5
0	1432	2246.922115307527	4
0	1434	2250.75402197369	5
0	1437	2260.187504029744	6
0	1440	2262.654439145504	5
0	1442	2262.857698878666	4
0	1444	2262.998113159759	5
0	1447	2263.389409073821	4
0	1449	2264.939290921397	3
0	1451	2272.842066115785	4
0	1454	2277.860423617597	3
0	1456	2280.209534558964	4
0	1459	2282.074360446257	5
0	1462	2282.631345204873	4
0	1464	2292.917712751779	5
0	1467	2295.325484908646	4
0	1469	2295.367327128805	5
0	1472	2297.78295949071	6
0	1475	2308.882488084505	5
0	1477	2311.460895241336	6
0	1480	2311.898645777566	5
0	1482	2314.866502557588	6
0	1485	2316.508165767821	7
0	1488	2321.697015204013	8
0	1490	2329.659787120212	7
0	1493	2332.828049196717	8
0	1495	2335.135698891121	7
0	1498	2341.653112804491	8
0	1500	2342.531828421181	9
0	1502	2344.076091846311	8
0	1505	2345.174266894859	9
0	1507	2346.549109024603	8
0	1510	2347.293335780496	7
0	1513	2350.431634496518	6
0	1515	2350.622760994914	5
0	1517	2357.287382694046	6
0	1520	2359.72856016538	5
0	1522	2365.224179645632	4
0	1524	2367.026585207821	5
0	1527	2369.867260703593	4
0	1529	2370.502779913601	5
0	1532	2385.293846599791	4
0	1534	2387.83068797127	5
0	1537	2388.818680202827	4
0	1539	2404.437751879355	5
0	1542	2404.876848189599	4
0	1544	2407.803077114528	5
0	1547	2408.713173844127	4
0	1549	2412.025954659069	3
0	1551	2414.204594410235	2
0	1553	2414.86865131028	3
0	1556	2418.81243720719	2
0	1558	2426.716895922343	1
0	1560	2430.115783666701	2
0	1563	2430.731857069093	3
0	1566	2435.873636977216	2
0	1568	2436.436468224561	3
0	1571	2441.69544931358	4
0	1574	2443.952139297786	3
0	1576	2447.981530969782	4
0	1579	2452.478727864436	3
0	1581	2453.848023569525	4
0	1584	2456.698838589373	3
0	1586	2465.377442385716	2
0	1588	2467.038452277817	3
0	1591	2469.021216045962	4
0	1594	2470.616516446349	3
0	1596	2475.835123207737	4
0	1599	2476.358003685841	5
0	1602	2478.28211442923	6
0	1605	2478.607245476295	5
0	1607	2482.954057354401	6
0	1610	2482.955213654449	7
0	1613	2484.314068315493	8
0	1615	2485.132760685683	7
0	1618	2486.947989056664	6
0	1620	2487.665225288916	5
0	1622	2488.18748982934	4
0	1624	2494.272860748298	5
0	1627	2504.587645263443	6
0	1630	2505.467427740981	7
0	1633	2509.439202962183	6
0	1635	2510.34114059649	5
0	1637	2513.636195535966	4
0	1639	2525.455236512213	3
0	1641	2532.559748328679	2
0	1643	2547.777532568808	3
0	1646	2552.020896045156	2
0	1648	2554.299585140519	3
0	1651	2558.581571918151	2
0	1653	2560.868498055403	3
0	1656	2569.243486511944	2
0	1658	2581.920685750728	1
0	1660	2586.15556103169	2
0	1663	2588.346153631093	1
0	1665	2607.250607368749	2
0	1668	2607.283958742682	1
0	1670	2611.020746389481	2
0	1673	2618.816026744238	3
0	1676	2623.754935852007	2
0	1678	2624.550349852419	3
0	1681	2628.645866183296	4
0	1684	2633.612911595013	5
0	1687	2637.487808869101	6
0	1690	2637.671684559971	5
0	1692	2655.738367964941	4
0	1694	2662.473681132528	5
0	1697	2663.6839879529	4
0	1699	2668.366220386676	3
0	1701	2675.184967788121	2
0	1703	2679.811556948423	3
0	1706	2683.225017006114	4
0	1709	2685.972048971144	5
0	1712	2687.118950846829	6
0	1715	2687.257085188801	7
0	1718	2696.451326879226	6
0	1720	2704.344045586261	5
0	1722	2712.021352838935	4
0	1724	2716.985864999811	3
0	1726	2720.096815976599	4
0	1729	2723.751692205769	3
0	1731	2728.095806442878	4
0	1734	2728.398586800348	5
0	1737	2742.587804309958	6
0	1740	2744.871917008154	5
0	1742	2750.542694415795	6
0	1745	2759.4100416647	5
0	1747	2760.683827589256	4
0	1749	2762.675804242417	3
0	1751	2770.16267110603	4
0	1754	2771.833267657058	3
0	1756	2773.447039088246	4
0	1759	2773.592724809212	5
0	1762	2782.807626858582	6
0	1765	2786.138752252049	5
0	1767	2790.23819810855	4
0	1769	2793.158034336408	3
0	1771	2797.175298905674	2
0	1773	2797.288533310847	3
0	1776	2803.81643727455	2
0	1778	2810.791667329343	3
0	1781	2814.982022878462	4
0	1784	2825.892785704764	5
0	1787	2826.668415834864	4
0	1789	2831.405617361966	5
0	1792	2833.644780408494	4
0	1794	2855.903503308448	5
0	1797	2861.119679057636	6
0	1800	2868.481625543099	7
0	1803	2868.823737302302	8
0	1805	2875.002759954224	9
0	1807	2875.888064371579	8
0	1810	2884.346711101564	7
0	1813	2887.177406934142	6
0	1815	2888.451949577564	5
0	1817	2889.34034072223	6
0	1820	2895.657227772292	5
0	1822	2897.75725501121	4
0	1824	2906.626506999803	3
0	1826	2909.141647991397	4
0	1829	2909.341781467596	5
0	1832	2913.621807087725	4
0	1834	2917.282655695371	5
0	1837	2925.499692940328	6
0	1840	2928.963438116438	5
0	1842	2932.309271653758	4
0	1844	2936.361701660531	5
0	1847	2936.779633476798	6
0	1850	2939.380723441777	5
0	1852	2939.99959945631	4
0	1854	2940.664150291586	5
0	1857	2945.546105781814	6
0	1860	2954.425662015209	7
0	1863	2954.797194307088	6
0	1865	2958.066034844572	5
0	1867	2958.378444771121	4
0	1869	2960.695643377592	5
0	1872	2961.182645751784	6
0	1875	2961.905462103441	7
0	1878	2971.526192183087	6
0	1880	2975.889978979742	7
0	1883	2977.844771838835	6
0	1885	2989.589444157808	5
0	1887	2994.994136313875	6
0	1890	2996.444394645574	5
0	1892	3000.262112792754	6
0	1895	3003.070701454885	7
0	1898	3006.664870364797	8
0	1900	3009.032045339065	9
0	1902	3010.611905066881	8
0	1905	3010.768656827708	9
0	1907	3011.956825662387	10
0	1909	3016.108357848373	9
0	1912	3019.929378942645	10
0	1914	3022.038251616944	9
0	1917	3022.51215196741	8
0	1920	3037.391779083382	9
0	1922	3041.670671993029	8
0	1925	3041.974780460465	7
0	1928	3042.084572376028	6
0	1930	3043.133902330658	7
0	1933	3044.949499330068	8
0	1935	3052.266468996795	7
0	1938	3055.247225948594	6
0	1940	3057.873391779815	5
0	1942	3065.090455456761	4
0	1944	3066.564802784373	5
0	1947	3066.830768208579	6
0	1950	3068.218352681899	7
0	1953	3074.325403358235	8
0	1955	3078.949417190062	7
0	1958	3084.78500862004	8
0	1960	3084.980568442164	9
0	1962	3087.652325084174	10
0	1964	3089.635789892277	11
0	1966	3090.198942862423	10
0	1969	3091.108191711311	9
0	1972	3097.870676294162	8
0	1975	3099.643000665186	7
0	1978	3101.264023472985	8
0	1980	3102.249004374526	7
0	1983	3102.394593845735	6
0	1985	3115.297056519459	5
0	1987	3117.573795846084	6
0	1990	3117.651202148548	5
0	1992	3125.259108042428	6
0	1995	3126.792284203316	7
0	1998	3131.756842715667	6
0	2000	3138.318102145795	7
0	2003	3146.853739186238	6
0	2005	3150.348265672642	7
0	2008	3153.141490537566	6
0	2010	3157.543227707824	5
0	2012	3161.840312454856	6
0	2015	3164.349597417909	5
0	2017	3166.024303488011	4
0	2019	3168.375659649176	5
0	2022	3171.175617908154	6
0	2025	3173.908144766814	5
0	2027	3175.827456568829	6
0	2030	3181.093487857099	5
0	2032	3183.81188667419	6
0	2035	3190.118707788771	7
0	2038	3193.41373162593	6
0	2040	3195.036102702639	5
0	2042	3200.165676745879	6
0	2045	3200.505368759616	5
0	2047	3202.346255629465	4
0	2049	3205.022973941602	3
0	2051	3209.426955647087	2
0	2053	3209.701948212589	3
0	2056	3209.817141527667	4
0	2059	3210.750567798323	5
0	2062	3211.109068220207	6
0	2065	3219.273963507538	7
0	2068	3219.458804243389	6
0	2070	3220.531686138253	5
0	2072	3224.153596036846	6
0	2075	3228.329613039906	7
0	2078	3229.275267472442	8
0	2080	3230.569820348833	9
0	2082	3241.337643778027	10
0	2084	3253.848983958222	11
0	2086	3254.867419739147	10
0	2089	3255.649321644479	9
0	2092	3264.122799815784	8
0	2095	3271.288721118878	7
0	2098	3277.733705496505	6
0	2100	3278.893667079235	5
0	2102	3283.201637383888	4
0	2104	3286.571502306548	3
0	2106	3289.301995696415	4
0	2109	3289.794286865799	5
0	2112	3294.479384453483	6
0	2115	3295.484925878153	7
0	2118	3302.117835717908	6
0	2120	3302.394052773907	5
0	2122	3310.894681968941	4
0	2124	3312.508680289952	3
0	2126	3318.894570748528	2
0	2128	3329.92674816695	3
0	2131	3336.558189520959	4
0	2134	3341.562302978879	5
0	2137	3341.668457158412	4
0	2139	3341.767458738761	3
0	2141	3349.301429173687	4
0	2144	3354.785061019061	5
0	2147	3354.8777244757	4
0	2149	3354.987623986577	5
0	2152	3356.692272992602	6
0	2155	3359.300308658551	7
0	2158	3361.399804957167	6
0	2160	3366.867408646702	7
0	2163	3373.177565932462	6
0	2165	3378.028365215591	5
0	2167	3381.951073785059	4
0	2169	3382.211773427684	3
0	2171	3389.90096640942	2
0	2173	3424.25699154129	3
0	2176	3430.215390688899	2
0	2178	3430.769569014812	3
0	2181	3433.498716018838	2
0	2183	3448.66025756507	3
0	2186	3452.115060862479	2
0	2188	3454.656244404609	3
0	2191	3454.719485008729	4
0	2194	3458.885347585258	5
0	2197	3461.662175809757	4
0	2199	3472.22561452996	5
0	2202	3472.858750144462	4
0	2204	3477.686913860932	5
0	2207	3483.442948396663	6
0	2210	3483.57571791491	7
0	2213	3489.056702082758	6
0	2215	3491.124942502959	5
0	2217	3499.225275883318	4
0	2219	3503.217216010744	3
0	2221	3503.747978162623	2
0	2223	3505.898035868143	3
0	2226	3517.280206097656	2
0	2228	3518.874874065805	1
0	2230	3525.733365721738	2
0	2233	3526.394301465307	1
0	2235	3538.773992259155	2
0	2238	3539.109094039591	1
0	2240	3549.509455020004	2
0	2243	3551.029159739067	1
0	2245	3551.989605089294	0
0	2247	3563.618100455108	1
0	2250	3570.3207908711	2
0	2253	3574.917657838323	3
0	2256	3578.542507404706	4
0	2259	3584.805051656029	3
0	2261	3586.990159640064	4
0	2264	3587.350810276024	5
0	2267	3594.826621017068	6
0	2270	3602.001178924247	5
0	2272	3603.467471821403	6
0	2275	3604.083493088381	5
0	2277	3606.878604742847	6
0	2280	3611.600370478169	5
0	2282	3613.138688898431	6
0	2285	3621.249727367837	5
0	2287	3627.440644257895	4
0	2289	3633.163425243395	5
0	2292	3635.064794531775	6
0	2295	3635.247728197902	5
0	2297	3637.676759282901	4
0	2299	3638.956118272611	3
0	2301	3639.996093831979	4
0	2304	3643.793404440095	3
0	2306	3646.80362943999	4
0	2309	3651.257725917037	3
0	2311	3651.6335381285	4
0	2314	3653.552741805039	3
0	2316	3656.780372931742	2
0	2318	3662.960285308669	1
0	2320	3664.099149888332	2
0	2323	3668.045878957818	1
0	2325	3682.112933954207	2
0	2328	3685.970420828451	3
0	2331	3688.815389088694	4
0	2334	3690.091492169327	3
0	2336	3709.910315420862	4
0	2339	3722.747816796437	3
0	2341	3728.420235707521	2
0	2343	3733.837926795816	3
0	2346	3734.507181941579	4
0	2349	3762.496289981286	5
0	2352	3764.736576802971	4
0	2354	3772.714422692133	3
0	2356	3773.574673023264	4
0	2359	3775.144312459658	5
0	2362	3776.353044796563	4
0	2364	3777.853143949818	3
0	2366	3795.064292540178	2
0	2368	3796.96523126593	3
0	2371	3806.612911919625	4
0	2374	3822.470095740399	5
0	2377	3830.512757819612	6
0	2380	3833.414203024133	5
0	2382	3833.792985548272	6
0	2385	3837.816700157673	7
0	2388	3847.830234995043	8
0	2390	3847.998715046829	7
0	2393	3849.430251970725	8
0	2395	3849.70733444646	9
0	2397	3857.864760273472	8
0	2400	3861.066850918048	7
0	2403	3869.36253058892	6
0	2405	3869.937311477626	7
0	2408	3869.991114095193	8
0	2410	3871.239663510504	9
0	2412	3874.294773221438	8
0	2415	3876.485659857547	7
0	2418	3878.541918224606	6
0	2420	3879.740970608902	7
0	2423	3881.289108357493	6
0	2425	3881.455510760444	5
0	2427	3883.40651228017	6
0	2430	3885.636106193093	7
0	2433	3890.476199055421	6
0	2435	3896.188474354963	5
0	2437	3905.038528232967	6
0	2440	3905.903904808641	5
0	2442	3917.162227261587	4
0	2444	3922.242862970814	3
0	2446	3922.997506266461	4
0	2449	3923.896041017395	5
0	2452	3927.491872446405	6
0	2455	3929.852851785518	5
0	2457	3934.177648634249	6
0	2460	3936.989767922785	5
0	2462	3937.371901959612	6
0	2465	3940.408880063731	7
0	2468	3940.991351045966	6
0	2470	3941.579742710858	5
0	2472	3945.888817880707	6
0	2475	3946.537217803811	5
0	2477	3947.416885409994	4
0	2479	3962.26941252609	3
0	2481	3965.422229099375	4
0	2484	3970.145145055241	3
0	2486	3970.525146163419	2
0	2488	3975.147276341791	3
0	2491	3990.547710489394	4
0	2494	3992.905145988613	3
0	2496	4000.98250275356	2
0	2498	4001.364888720215	3
0	2501	4001.544754340418	2
0	2503	4008.591824553758	1
0	2505	4011.11338875857	2
0	2508	4015.955613153874	3
0	2511	4024.513487275327	2
0	2513	4025.981148803582	1
0	2515	4026.082732988184	2
0	2518	4026.121038259085	3
0	2521	4029.505109097656	2
0	2523	4030.466900116748	3
0	2526	4032.710015526799	4
0	2529	4033.340094147547	3
0	2531	4034.699556807105	2
0	2533	4040.565709946407	3
0	2536	4040.834158931492	4
0	2539	4042.660654425939	3
0	2541	4046.847924275585	2
0	2543	4049.565654134025	3
0	2546	4069.024742632203	2
0	2548	4081.178098733488	3
0	2551	4088.978452248827	2
0	2553	4089.370416754825	3
0	2556	4089.821207815246	4
0	2559	4094.321162385827	3
0	2561	4102.74395329806	2
0	2563	4104.257219627356	3
0	2566	4105.031640344565	4
0	2569	4116.561163625819	5
0	2572	4132.199712964717	4
0	2574	4133.647921985997	5
0	2577	4140.100496036169	4
0	2579	4150.249605399064	5
0	2582	4153.421685753116	4
0	2584	4156.853115283907	3
0	2586	4161.222080891403	2
0	2588	4161.548267431408	3
0	2591	4165.66097418626	2
0	2593	4169.058178129038	3
0	2596	4187.861291525229	4
0	2599	4189.196258683115	5
0	2602	4190.597944472477	6
0	2605	4191.030792203827	5
0	2607	4193.537967778522	6
0	2610	4195.262299421339	5
0	2612	4198.931545130474	6
0	2615	4199.309011430903	7
0	2618	4201.096961992943	6
0	2620	4212.019157813824	5
0	2622	4213.323309396382	4
0	2624	4219.383393174808	3
0	2626	4221.587087262221	2
0	2628	4227.647739872823	1
0	2630	4230.216903212782	2
0	2633	4230.369034095984	3
0	2636	4251.931668991705	2
0	2638	4262.749700186039	3
0	2641	4264.885243370015	4
0	2644	4266.243414335552	5
0	2647	4267.810225681883	4
0	2649	4270.018490677591	3
0	2651	4275.038796183201	4
0	2654	4281.06498767179	5
0	2657	4284.368670539342	4
0	2659	4288.31694155411	5
0	2662	4292.023224413204	6
0	2665	4292.669020295652	7
0	2668	4294.826179601917	6
0	2670	4303.76169191045	5
0	2672	4308.5415441702	6
0	2675	4310.538157278663	7
0	2678	4311.030350370043	8
0	2680	4312.919096655331	7
0	2683	4315.775648316886	8
0	2685	4317.696266306236	7
0	2688	4320.289759307893	6
0	2690	4322.506467792611	7
0	2693	4326.404850988294	6
0	2695	4326.872402152404	7
0	2698	4328.526453706062	8
0	2700	4329.12536640487	9
0	2702	4330.895564712087	8
0	2705	4332.344577397362	7
0	2708	4334.006348960741	6
0	2710	4336.580584002583	5
0	2712	4342.539597974371	4
0	2714	4343.973029104351	3
0	2716	4355.107654845849	4
0	2719	4357.814470396419	5
0	2722	4363.059171513184	6
0	2725	4366.427912984486	7
0	2728	4370.529428379904	6
0	2730	4372.684149030905	7
0	2733	4375.560514397473	8
0	2735	4379.064611259337	7
0	2738	4379.897447865394	8
0	2740	4383.937224916142	9
0	2742	4384.136592228112	10
0	2744	4385.9955933852	11
0	2746	4392.772837324417	10
0	2749	4394.072620814934	11
0	2751	4395.902293647181	10
0	2754	4400.533679584319	9
0	2757	4404.850415958578	10
0	2759	4405.240819794058	11
0	2761	4408.050928626285	12
0	2763	4408.642733334129	11
0	2766	4410.97964738659	12
0	2768	4415.669970556144	11
0	2771	4419.424723436266	10
0	2774	4419.820319650477	9
0	2777	4420.0634061399	10
0	2779	4421.110039434768	9
0	2782	4424.365456520221	10
0	2784	4426.784953940267	11
0	2786	4428.622721627369	12
0	2788	4432.833371547424	13
0	2790	4436.264614180055	14
0	2792	4437.383798626372	13
0	2795	4438.207696890725	14
0	2797	4441.197759492213	13
0	2800	4441.374700993399	12
0	2803	4444.943912615083	11
0	2806	4446.442566389588	10
0	2809	4451.10025087036	11
0	2811	4451.698331025576	12
0	2813	4456.787092230975	11
0	2816	4462.006264077277	12
0	2818	4469.390059601222	13
0	2820	4470.0319222402	12
0	2823	4471.769907521348	11
0	2826	4476.374916898978	10
0	2829	4478.336689809272	9
0	2832	4493.642353624383	8
0	2835	4497.655746395272	7
0	2838	4506.05482441052	8
0	2840	4506.298111119435	7
0	2843	4509.347693527221	6
0	2845	4512.054859857479	5
0	2847	4513.493722538537	4
0	2849	4514.659268299201	5
0	2852	4517.756272443039	4
0	2854	4518.969257819606	3
0	2856	4519.70256909684	4
0	2859	4524.38589393326	3
0	2861	4528.095449744866	4
0	2864	4539.540687691765	5
0	2867	4540.821631406152	4
0	2869	4546.934594940752	3
0	2871	4548.005213127919	4
0	2874	4562.282311877092	3
0	2876	4566.168876593857	4
0	2879	4567.488062600225	5
0	2882	4574.720071620254	4
0	2884	4577.474653669011	3
0	2886	4591.761002524901	4
0	2889	4594.472483803342	5
0	2892	4598.581372385318	6
0	2895	4601.782513802468	7
0	2898	4604.369149075771	8
0	2900	4609.749299073946	7
0	2903	4610.691503901721	8
0	2905	4611.95573912241	9
0	2907	4625.795026482767	8
0	2910	4627.796911922232	9
0	2912	4628.396546273077	10
0	2914	4629.370280575715	9
0	2917	4634.190224672781	10
0	2919	4634.55728300207	9
0	2922	4636.555414285668	8
0	2925	4638.248969648926	9
0	2927	4638.902410994601	8
0	2930	4639.430870931778	9
0	2932	4645.172711580704	10
0	2934	4652.136050995993	9
0	2937	4653.858027858569	10
0	2939	4661.520812948609	11
0	2941	4665.80055997779	10
0	2944	4670.84725552846	11
0	2946	4672.97014430059	10
0	2949	4676.003450858843	11
0	2951	4677.039545252997	12
0	2953	4677.959803502778	11
0	2956	4678.859109618485	10
0	2959	4679.310064666339	11
0	2961	4679.333694993146	12
0	2963	4680.562610874579	13
0	2965	4682.863367605255	12
0	2968	4685.737737535214	11
0	2971	4690.387330885001	12
0	2973	4694.846582819022	11
0	2976	4694.873827972414	10
0	2979	4700.995439779986	9
0	2982	4701.732797313925	10
0	2984	4703.001442710718	9
0	2987	4703.542267157862	8
0	2990	4705.496881393904	7
0	2993	4709.876007918363	6
0	2995	4713.654345810291	5
0	2997	4718.316962066763	4
0	2999	4723.130040581336	3
0	3001	4729.658069970865	4
0	3004	4744.6452475624	5
0	3007	4757.644528581	4
0	3009	4763.707171943452	3
0	3011	4767.87390177095	2
0	3013	4768.287638625897	3
0	3016	4777.286751140608	4
0	3019	4780.037628050475	5
0	3022	4784.874404977602	6
0	3025	4788.8635224628	5
0	3027	4790.699943031478	6
0	3030	4790.980031788109	7
0	3033	4792.903824810283	8
0	3035	4803.345333484044	7
0	3038	4809.409254311668	6
0	3040	4816.530653072183	5
0	3042	4818.586555034325	4
0	3044	4820.60165009598	3
0	3046	4842.753422061591	4
0	3049	4845.20475315756	3
0	3051	4852.629130168484	4
0	3054	4864.307143951309	5
0	3057	4864.545123366158	6
0	3060	4865.317026532069	7
0	3063	4886.087966142244	6
0	3065	4893.158730131621	7
0	3068	4896.356488426663	6
0	3070	4897.202718190672	7
0	3073	4897.595876905504	6
0	3075	4901.331830401575	7
0	3078	4904.580252304144	8
0	3080	4908.783572235233	7
0	3083	4911.168674197403	8
0	3085	4912.108855265408	9
0	3087	4914.981879920618	10
0	3089	4919.504163986378	9
0	3092	4921.252120936836	10
0	3094	4922.871820588436	9
0	3097	4924.263049324061	8
0	3100	4936.350388450004	9
0	3102	4937.938587040432	8
0	3105	4939.740355119457	9
0	3107	4939.762354614045	10
0	3109	4951.029678168073	11
0	3111	4954.820874229278	12
0	3113	4956.096408885229	13
0	3115	4957.060198283458	12
0	3118	4967.364983964569	13
0	3120	4971.553381163029	12
0	3123	4972.401391026153	13
0	3125	4975.523114982576	12
0	3128	4977.045604299068	11
0	3131	4980.282641053548	12
0	3133	4985.227865091634	13
0	3135	4993.642865398362	12
0	3138	4993.73877850683	11
0	3141	4999.701538839634	12
0	3143	5001.575462757947	11
0	3146	5006.458773493166	12
0	3148	5011.676329870932	11
0	3151	5013.196842294722	10
0	3154	5022.782466836817	11
0	3156	5025.513783947027	10
0	3159	5025.516767072664	9
0	3162	5028.57763224385	10
0	3164	5033.339196992054	9
0	3167	5033.457881736263	8
0	3170	5034.179135598254	7
0	3173	5040.033916538382	8
0	3175	5046.055739349282	7
0	3178	5048.082408384249	6
0	3180	5049.601906657506	7
0	3183	5053.338250455021	8
0	3185	5054.245186664018	7
0	3188	5060.791900836584	8
0	3190	5061.334859124714	7
0	3193	5064.367513577475	6
0	3195	5071.874747648994	7
0	3198	5073.316405355064	6
0	3200	5076.009460371416	5
0	3202	5079.498096790428	4
0	3204	5082.987255922072	3
0	3206	5085.253011184732	4
0	3209	5088.864546033207	5
0	3212	5096.708281149418	6
0	3215	5104.21859371659	7
0	3218	5105.942172799818	6
0	3220	5109.248075002956	5
0	3222	5111.280392611218	6
0	3225	5118.370967296843	5
0	3227	5129.050041631818	4
0	3229	5134.651731786952	5
0	3232	5142.375019410905	4
0	3234	5144.104744042304	3
0	3236	5153.321923237923	2
0	3238	5155.013497447079	3
0	3241	5163.492933045719	2
0	3243	5169.024475875931	3
0	3246	5174.955670855289	4
0	3249	5183.010244384257	3
0	3251	5183.732762551461	2
0	3253	5211.077265675772	3
0	3256	5215.190405372562	2
0	3258	5223.888388864426	3
0	3261	5229.485055083574	4
0	3264	5232.879093130244	3
0	3266	5236.545731874752	4
0	3269	5238.37959223366	5
0	3272	5245.952137779581	4
0	3274	5249.830963686643	5
0	3277	5263.893673866943	6
0	3280	5265.181023794495	7
0	3283	5269.48154749979	8
0	3285	5270.097524465477	7
0	3288	5272.826655155705	8
0	3290	5281.634901898999	9
0	3292	5283.215877722251	10
0	3294	5283.983880899449	11
0	3296	5284.04768718507	12
0	3298	5289.120374543884	11
0	3301	5294.384282834108	10
0	3304	5297.290016311526	9
0	3307	5297.695686279428	10
0	3309	5299.753892569468	11
0	3311	5302.920898179595	10
0	3314	5306.001245460348	9
0	3317	5307.898852195855	10
0	3319	5309.065955188518	9
0	3322	5309.665708382443	10
0	3324	5309.957787049149	9
0	3327	5318.215834409786	10
0	3329	5319.495340299644	9
0	3332	5319.63886277032	8
0	3335	5324.712470205435	7
0	3338	5324.732403801433	6
0	3340	5324.77483155875	5
0	3342	5330.398529069381	4
0	3344	5338.096631716544	3
0	3346	5340.222254980917	2
0	3348	5343.08423004301	1
0	3350	5354.751905574725	2
0	3353	5367.218163517325	3
0	3356	5374.292538288097	4
0	3359	5379.901538133317	5
0	3362	5390.327716780886	4
0	3364	5396.15182017489	3
0	3366	5401.984457048406	4
0	3369	5404.613733951509	5
0	3372	5406.010192549586	4
0	3374	5406.422528001178	5
0	3377	5408.083804313914	4
0	3379	5410.716453876087	3
0	3381	5421.91952545064	4
0	3384	5426.177921792461	5
0	3387	5427.954212283247	4
0	3389	5436.988873739511	5
0	3392	5438.509562561663	6
0	3395	5439.192265073666	7
0	3398	5447.037166642909	8
0	3400	5448.428114679148	9
0	3402	5452.635616577699	10
0	3404	5452.688109357633	9
0	3407	5458.698743291358	10
0	3409	5459.150870139	9
0	3412	5459.246855733616	8
0	3415	5459.762898985572	9
0	3417	5461.361021069716	8
0	3420	5469.855327673081	7
0	3423	5471.143706521427	6
0	3425	5472.552240530343	5
0	3427	5481.189430159242	6
0	3430	5483.383600203574	7
0	3433	5493.142213878332	8
0	3435	5496.803998991715	9
0	3437	5498.941946193396	8
0	3440	5499.43805767667	9
0	3442	5499.830446676176	8
0	3445	5500.400482953766	7
0	3448	5503.046951483335	6
0	3450	5503.985519999533	7
0	3453	5504.458933472566	8
0	3455	5506.181222740799	7
0	3458	5506.623879432959	6
0	3460	5519.022719585688	7
0	3463	5522.868228689187	6
0	3465	5523.137285796383	7
0	3468	5523.265739283336	8
0	3470	5529.142121605985	9
0	3472	5532.759935863159	8
0	3475	5537.089514206246	9
0	3477	5537.201059263571	10
0	3479	5539.239936293612	11
0	3481	5543.192677581572	12
0	3483	5543.950953432508	11
0	3486	5544.52905840766	10
0	3489	5547.062518500165	9
0	3492	5548.34693626017	8
0	3495	5549.381845744447	9
0	3497	5552.307290897752	8
0	3500	5558.611367440402	7
0	3503	5565.223646394843	8
0	3505	5568.328400858051	9
0	3507	5570.136694319895	10
0	3509	5572.365784286629	9
0	3512	5573.37502528516	8
0	3515	5574.238684507603	9
0	3517	5578.419651851073	8
0	3520	5578.849861096493	7
0	3523	5584.534686435414	6
0	3525	5585.994579153694	5
0	3527	5593.226161930395	6
0	3530	5595.971558897065	7
0	3533	5611.925431949909	6
0	3535	5616.843958294498	7
0	3538	5619.109860696731	6
0	3540	5627.271252709297	5
0	3542	5627.429926202476	4
0	3544	5628.044924374093	3
0	3546	5632.554343200583	4
0	3549	5637.538774017901	5
0	3552	5639.395695268793	4
0	3554	5644.522089764292	5
0	3557	5656.799573979148	4
0	3559	5659.638608393671	5
0	3562	5662.717969870232	6
0	3565	5669.897517672781	5
0	3567	5672.155741699685	4
0	3569	5672.330111573443	3
0	3571	5682.296341898224	2
0	3573	5684.866765210924	1
0	3575	5696.36559374057	2
0	3578	5705.272492187182	3
0	3581	5707.201618799407	4
0	3584	5708.254275249068	5
0	3587	5716.289445159336	6
0	3590	5722.922796080794	7
0	3593	5729.149669753025	6
0	3595	5730.443733336935	7
0	3598	5735.950178712417	8
0	3600	5740.206190857759	7
0	3603	5746.062680135087	6
0	3605	5746.777351856473	7
0	3608	5748.508526676473	6
0	3610	5755.06285297326	5
0	3612	5755.247953122261	6
0	3615	5758.737790714217	5
0	3617	5759.521826133882	6
0	3620	5770.558335887153	5
0	3622	5781.539052500081	6
0	3625	5781.897159122606	5
0	3627	5793.31262905147	6
0	3630	5794.243267033688	5
0	3632	5796.652298813117	6
0	3635	5797.474110219815	7
0	3638	5799.466874972526	6
0	3640	5803.144727470849	5
0	3642	5803.236244416206	4
0	3644	5808.324573874976	5
0	3647	5809.847677584016	4
0	3649	5810.972817079246	3
0	3651	5811.097215676751	2
0	3653	5813.739789592981	1
0	3655	5819.399047464998	2
0	3658	5819.512565534062	3
0	3661	5819.803144591612	4
0	3664	5819.905372695391	3
0	3666	5820.293390344805	4
0	3669	5826.207380036679	5
0	3672	5827.469345379257	4
0	3674	5830.114328381064	3
0	3676	5838.654959590363	4
0	3679	5839.185332714723	3
0	3681	5842.885996484766	2
0	3683	5845.779707994905	3
0	3686	5848.687027736226	4
0	3689	5849.296934517796	5
0	3692	5851.787041908625	4
0	3694	5854.101923178117	5
0	3697	5858.515535808299	4
0	3699	5858.924968532452	5
0	3702	5864.801970379717	4
0	3704	5869.78933900382	5
0	3707	5880.270035679152	6
0	3710	5884.298690607163	5
0	3712	5886.113151061242	4
0	3714	5908.81836745494	5
0	3717	5915.987377026541	4
0	3719	5918.345572201797	5
0	3722	5919.711481900113	4
0	3724	5925.065260952493	5
0	3727	5933.494214550323	4
0	3729	5937.948753214962	5
0	3732	5951.365508169563	4
0	3734	5959.966984427568	5
0	3737	5960.146014967867	6
0	3740	5963.046686045988	5
0	3742	5964.115025808022	6
0	3745	5964.15311276499	5
0	3747	5965.161937738313	4
0	3749	5971.99544126743	5
0	3752	5976.903560548205	4
0	3754	5977.69322139759	3
0	3756	5978.785099115881	4
0	3759	5981.68670792367	5
0	3762	5983.567373354176	4
0	3764	5984.588427015415	3
0	3766	6005.17487248479	2
0	3768	6011.070981407239	3
0	3771	6054.924277299444	4
0	3774	6056.637050012819	5
0	3777	6058.709007044678	6
0	3780	6070.344798874112	7
0	3783	6070.514256992104	8
0	3785	6078.230328200614	7
0	3788	6081.279499228177	6
0	3790	6083.216346946057	5
0	3792	6083.254419933623	6
0	3795	6094.814934674007	5
0	3797	6099.257439321788	4
0	3799	6100.534924245088	3
0	3801	6102.414797123945	4
0	3804	6109.96948300139	5
0	3807	6122.644988355041	6
0	3810	6122.766755793142	5
0	3812	6124.774941111556	6
0	3815	6133.466422406341	7
0	3818	6140.286268351785	8
0	3820	6142.153638666797	7
0	3823	6145.115649839429	6
0	3825	6146.635391119445	5
0	3827	6153.893869469299	6
0	3830	6156.029625312706	5
0	3832	6156.989375860411	4
0	3834	6162.684724948415	5
0	3837	6163.47774956657	4
0	3839	6166.459378896391	5
0	3842	6171.398601791387	6
0	3845	6177.145634164142	5
0	3847	6180.360190115081	6
0	3850	6182.95267825015	5
0	3852	6190.256598600527	4
0	3854	6192.700037656022	3
0	3856	6198.072217480954	2
0	3858	6204.922702608681	3
0	3861	6205.766484224102	4
0	3864	6209.756567749677	5
0	3867	6210.618501023779	4
0	3869	6215.549366091279	5
0	3872	6220.684042293714	6
0	3875	6223.047115455058	7
0	3878	6227.453539023136	8
0	3880	6228.439159835896	7
0	3883	6229.343492305194	8
0	3885	6233.185888864959	7
0	3888	6235.001560119951	6
0	3890	6235.131161579605	7
0	3893	6237.389573946108	6
0	3895	6237.773090751938	7
0	3898	6249.086264359584	6
0	3900	6251.540271460057	5
0	3902	6252.906898489543	6
0	3905	6256.547941534566	7
0	3908	6257.63236992451	6
0	3910	6259.062486715279	5
0	3912	6259.857341537211	6
0	3915	6261.192875637156	5
0	3917	6263.214506337707	6
0	3920	6265.127657768926	7
0	3923	6265.140069222115	8
0	3925	6271.239813601844	7
0	3928	6275.353362097459	6
0	3930	6286.839696413604	7
0	3933	6288.866318687375	8
0	3935	6292.266655234231	7
0	3938	6295.817228326731	8
0	3940	6297.710607361542	7
0	3943	6304.328358430373	8
0	3945	6309.354618726394	7
0	3948	6312.199801121596	8
0	3950	6313.46778719366	7
0	3953	6316.428645901329	8
0	3955	6329.260685447629	7
0	3958	6330.456532059097	6
0	3960	6332.025968738154	7
0	3963	6332.964972223321	6
0	3965	6339.110656898455	5
0	3967	6339.783406509806	4
0	3969	6341.956722692202	5
0	3972	6347.837653401543	4
0	3974	6351.26022469516	5
0	3977	6351.611101550556	4
0	3979	6376.63428876402	5
0	3982	6382.563839442853	4
0	3984	6385.731767058429	3
0	3986	6387.948450872713	4
0	3989	6388.970151163866	5
0	3992	6392.354929522576	4
0	3994	6405.636476837657	3
0	3996	6409.15848888381	2
0	3998	6423.764758913879	3
0	4001	6432.592084988441	4
0	4004	6432.965804439476	3
0	4006	6435.067122077206	4
0	4009	6435.194391152415	3
0	4011	6436.27105094255	2
0	4013	6438.402460469748	3
0	4016	6441.73323081278	4
0	4019	6445.146416048784	3
0	4021	6449.732240370425	2
0	4023	6455.624862508202	3
0	4026	6463.266518521129	2
0	4028	6464.250514985449	3
0	4031	6466.913975355918	2
0	4033	6472.948962353079	1
0	4035	6480.022636277022	0
0	4037	6488.018180316498	1
0	4040	6490.707921116898	2
0	4043	6492.606462864457	3
0	4046	6494.124412047406	4
0	4049	6498.710492811279	3
0	4051	6502.677441534119	4
0	4054	6502.888340990699	5
0	4057	6510.239321629874	4
0	4059	6510.424007296358	3
0	4061	6511.860879392732	4
0	4064	6516.303913933769	5
0	4067	6520.461211130364	6
0	4070	6521.676237314693	5
0	4072	6529.843269262353	6
0	4075	6533.995824016233	7
0	4078	6535.275853940521	6
0	4080	6544.97826101998	5
0	4082	6545.75500594111	6
0	4085	6546.830361803532	5
0	4087	6547.133025587079	6
0	4090	6550.449479994564	7
0	4093	6564.567836648853	8
0	4095	6564.585188739662	7
0	4098	6567.458803302197	6
0	4100	6581.325631970882	7
0	4103	6582.855561545381	6
0	4105	6585.814181082145	7
0	4108	6586.636207944779	8
0	4110	6591.366623060582	7
0	4113	6592.875552686709	6
0	4115	6593.055880189208	7
0	4118	6593.635613565316	6
0	4120	6598.972445946006	7
0	4123	6599.075430901844	6
0	4125	6601.594660148656	5
0	4127	6603.45256405499	4
0	4129	6609.348544105297	3
0	4131	6613.746265917518	4
0	4134	6615.247120394195	3
0	4136	6618.986602016154	4
0	4139	6620.433910389909	3
0	4141	6624.274985209175	4
0	4144	6629.74450759552	5
0	4147	6630.058273325691	4
0	4149	6630.633714597923	5
0	4152	6630.846365566587	6
0	4155	6633.031162532986	7
0	4158	6634.456914357025	6
0	4160	6637.715775795492	5
0	4162	6640.88347158502	4
0	4164	6641.740891410474	5
0	4167	6649.575791722004	4
0	4169	6652.703471980792	3
0	4171	6653.304196878061	2
0	4173	6654.402194611142	3
0	4176	6655.328623822556	2
0	4178	6661.997554000304	1
0	4180	6664.821645925986	2
0	4183	6670.216418151047	3
0	4186	6673.714761911945	2
0	4188	6682.522740620996	3
0	4191	6696.193557179279	4
0	4194	6701.876886267887	5
0	4197	6710.323937317829	6
0	4200	6711.320484674585	5
0	4202	6714.026475130547	6
0	4205	6728.383842703023	7
0	4208	6729.695044987075	8
0	4210	6732.60739689883	7
0	4213	6734.747470470469	6
0	4215	6743.184669352047	5
0	4217	6744.115168181854	6
0	4220	6748.058422072153	5
0	4222	6754.944895007452	6
0	4225	6758.277247999466	5
0	4227	6763.402166655694	4
0	4229	6770.611680089791	5
0	4232	6779.376572495257	4
0	4234	6779.620331584404	5
0	4237	6787.948581143333	6
0	4240	6796.614246975043	7
0	4243	6796.875914691015	8
0	4245	6798.467514219192	7
0	4248	6799.398482813129	8
0	4250	6802.12135806388	7
0	4253	6806.020929250803	8
0	4255	6810.817730847006	9
0	4257	6817.950873120748	10
0	4259	6818.125067518422	9
0	4262	6822.612876896568	10
0	4264	6823.246581999769	9
0	4267	6823.350626434463	10
0	4269	6825.289772249642	11
0	4271	6825.420719209999	10
0	4274	6828.099036145079	9
0	4277	6828.525797965015	10
0	4279	6828.658539873895	9
0	4282	6838.461557291642	10
0	4284	6843.229676512922	9
0	4287	6844.62684330084	8
0	4290	6846.887167647099	9
0	4292	6849.626471123095	10
0	4294	6852.71876155897	11
0	4296	6857.583300874281	10
0	4299	6857.590135320043	11
0	4301	6863.540947895685	12
0	4303	6864.900852836859	11
0	4306	6867.145529113314	10
0	4309	6874.208852811463	11
0	4311	6874.95368002405	10
0	4314	6877.23043719254	9
0	4317	6877.755914865805	10
0	4319	6877.80956202962	11
0	4321	6884.368821645934	10
0	4324	6889.647160150719	9
0	4327	6892.128375716086	8
0	4330	6892.203842057146	7
0	4333	6895.879226889594	6
0	4335	6900.634743614974	5
0	4337	6904.144160300129	4
0	4339	6905.82731954122	5
0	4342	6911.233332021204	4
0	4344	6915.149346973808	5
0	4347	6916.747836708087	4
0	4349	6917.319528208205	3
0	4351	6926.015369086274	2
0	4353	6927.697829264596	3
0	4356	6931.672093126892	2
0	4358	6933.257772265839	1
0	4360	6940.73092794687	0
0	4362	6986.490276571134	1
0	4365	6987.86993400063	0
0	4367	6992.104066112238	1
0	4370	6993.828582484832	2
0	4373	6994.087342095446	3
0	4376	6998.007505564667	4
0	4379	7009.103088440723	3
0	4381	7009.907965109217	2
0	4383	7012.823991823731	3
0	4386	7014.007897716729	2
0	4388	7015.622384932175	3
0	4391	7017.847016507552	2
0	4393	7020.459209723397	3
0	4396	7035.823191372735	4
0	4399	7054.907651112461	5
0	4402	7061.346507382449	4
0	4404	7063.715511632758	5
0	4407	7066.082578311332	4
0	4409	7070.781589245323	5
0	4412	7073.068522610051	6
0	4415	7074.48258803741	5
0	4417	7075.937173446719	4
0	4419	7076.305789414284	5
0	4422	7078.194099001346	6
0	4425	7093.271453968468	7
0	4428	7094.118351010854	8
0	4430	7097.60365277199	7
0	4433	7098.663741381531	6
0	4435	7098.843937460112	7
0	4438	7102.374552222784	6
0	4440	7102.844801672459	5
0	4442	7103.786000461831	6
0	4445	7104.134338731129	5
0	4447	7105.593520113385	4
0	4449	7115.851947253194	5
0	4452	7117.000275526643	6
0	4455	7119.651946262534	5
0	4457	7127.644689145116	4
0	4459	7128.162190184464	5
0	4462	7128.212326597112	4
0	4464	7132.792054531962	5
0	4467	7136.097975296548	4
0	4469	7140.639563953024	3
0	4471	7141.624213052819	2
0	4473	7141.840625916741	3
0	4476	7143.041779438013	4
0	4479	7148.969869819436	3
0	4481	7152.173188392756	2
0	4483	7152.990435247822	3
0	4486	7158.133999557236	2
0	4488	7159.167488126579	3
0	4491	7162.660883189797	2
0	4493	7165.799511323561	1
0	4495	7175.431505035271	2
0	4498	7181.862543584109	1
0	4500	7186.013999614219	2
0	4503	7201.053006366558	3
0	4506	7207.321040895504	4
0	4509	7208.604615645949	3
0	4511	7217.317645727282	4
0	4514	7218.69843993992	3
0	4516	7221.576028128716	2
0	4518	7224.192394494837	3
0	4521	7244.518526467802	4
0	4524	7255.525141620369	3
0	4526	7256.37316780063	4
0	4529	7257.92314458932	5
0	4532	7262.364315012862	4
0	4534	7266.639156084608	3
0	4536	7274.870221312807	2
0	4538	7299.10495497888	3
0	4541	7299.353340450678	2
0	4543	7305.269398337775	1
0	4545	7305.667493898078	0
0	4547	7309.572743298363	1
0	4550	7313.907907293831	0
0	4552	7331.6142257624	1
0	4555	7332.238913404224	2
0	4558	7333.354933257815	3
0	4561	7337.097353394338	4
0	4564	7344.469113229304	3
0	4566	7346.243937768899	2
0	4568	7354.019359749284	1
0	4570	7355.536417154254	2
0	4573	7365.672695649736	3
0	4576	7369.522008707784	4
0	4579	7370.225587905934	3
0	4581	7382.010402078807	4
0	4584	7391.394481183843	5
0	4587	7394.729365935859	6
0	4590	7395.305318470866	5
0	4592	7402.94614113883	4
0	4594	7403.234325443655	5
0	4597	7411.392703330558	4
0	4599	7415.297515405539	3
0	4601	7416.516590731646	2
0	4603	7418.787377581834	3
0	4606	7427.675791130775	4
0	4609	7428.237638656216	5
0	4612	7428.325783738062	4
0	4614	7437.090584243471	5
0	4617	7437.879635357902	4
0	4619	7442.917436289955	3
0	4621	7447.010280616539	4
0	4624	7448.387579178473	5
0	4627	7452.260506890993	6
0	4630	7455.30452414273	5
0	4632	7458.029480115908	6
0	4635	7459.721243877785	5
0	4637	7463.648590174879	4
0	4639	7467.713796029227	3
0	4641	7480.037297900158	4
0	4644	7487.941088467293	5
0	4647	7489.083475843847	4
0	4649	7491.375759855838	3
0	4651	7496.188659534711	2
0	4653	7497.603097881351	1
0	4655	7498.347998475944	2
0	4658	7502.842747976753	3
0	4661	7517.816987095971	4
0	4664	7521.509769749727	5
0	4667	7521.838388371956	4
0	4669	7527.270643629803	5
0	4672	7530.781682426779	4
0	4674	7548.907509099801	3
0	4676	7552.811558051542	4
0	4679	7553.328505191513	3
0	4681	7553.637964422918	2
0	4683	7555.729855542289	3
0	4686	7557.401591242509	2
0	4688	7570.475707371603	1
0	4690	7572.801483896658	0
0	4692	7574.494685882389	1
0	4695	7576.798467818173	2
0	4698	7577.651663180301	3
0	4701	7582.939866573314	2
0	4703	7593.575619610321	1
0	4705	7599.486595011496	2
0	4708	7600.414853583277	1
0	4710	7613.557090812124	2
0	4713	7621.560653510471	3
0	4716	7628.632797475803	2
0	4718	7635.995253118559	3
0	4721	7644.943158125164	2
0	4723	7646.746754828084	1
0	4725	7649.002942717161	2
0	4728	7650.746964824173	3
0	4731	7652.251866914618	4
0	4734	7654.256855987674	5
0	4737	7661.97811493254	4
0	4739	7662.459532225526	3
0	4741	7665.917081287821	4
0	4744	7668.452065972224	3
0	4746	7670.089335146428	4
0	4749	7679.21166552527	5
0	4752	7679.700548162749	6
0	4755	7682.736537967435	7
0	4758	7684.356692510205	6
0	4760	7684.980488716286	7
0	4763	7687.503980482611	8
0	4765	7687.929145068782	9
0	4767	7696.723688463236	8
0	4770	7699.188551217061	7
0	4773	7705.740146148757	8
0	4775	7706.262854407634	7
0	4778	7706.916346926615	8
0	4780	7707.481119476941	9
0	4782	7708.425907865134	8
0	4785	7708.694996409624	7
0	4788	7712.259144775711	6
0	4790	7713.56445314652	5
0	4792	7718.356954342059	4
0	4794	7723.459270513914	5
0	4797	7724.055921859258	4
0	4799	7724.265169875758	3
0	4801	7740.545824299818	4
0	4804	7743.134628392263	3
0	4806	7744.076932002673	2
0	4808	7747.822252837747	3
0	4811	7750.764202735513	4
0	4814	7756.103480287283	3
0	4816	7759.666595970471	4
0	4819	7763.492653936628	3
0	4821	7769.5628457142	2
0	4823	7780.855398914009	1
0	4825	7784.667026489106	2
0	4828	7788.622856150313	3
0	4831	7799.914492393119	2
0	4833	7825.506544112724	1
0	4835	7827.945848309802	0
0	4837	7834.042401421677	1
0	4840	7837.87678555262	2
0	4843	7842.170507057283	1
0	4845	7857.495407781222	2
0	4848	7862.345321245384	1
0	4850	7867.209894628486	2
0	4853	7868.314434358646	1
0	4855	7872.419484663589	2
0	4858	7875.144897737067	3
0	4861	7878.393008826956	4
0	4864	7885.408805602855	3
0	4866	7899.965666085977	4
0	4869	7904.087516380896	3
0	4871	7907.87812900005	4
0	4874	7913.405620472275	3
0	4876	7916.976196192298	4
0	4879	7917.27768107205	3
0	4881	7917.844067642257	4
0	4884	7924.531064581823	3
0	4886	7926.031263813743	2
0	4888	7932.298880128163	1
0	4890	7936.027385024219	2
0	4893	7948.276089299629	3
0	4896	7955.934426037464	2
0	4898	7966.355182462804	1
0	4900	7967.600227620228	2
0	4903	7973.520152900778	3
0	4906	7980.161576915138	4
0	4909	7984.04133798457	5
0	4912	7984.391406440663	4
0	4914	7985.700271342449	5
0	4917	7985.840959250768	6
0	4920	7991.206696132955	5
0	4922	7993.355652468308	4
0	4924	7995.63605912641	5
0	4927	7999.264110818108	4
0	4929	8006.349598084506	5
0	4932	8008.174879745205	4
0	4934	8016.149240415912	5
0	4937	8029.880148091874	6
0	4940	8031.433612524991	5
0	4942	8032.537839643931	4
0	4944	8033.688672131184	5
0	4947	8034.272446567948	6
0	4950	8037.752777483454	7
0	4953	8041.494749288701	6
0	4955	8042.534619013821	7
0	4958	8044.058052564407	8
0	4960	8047.118095602039	7
0	4963	8056.669877577327	8
0	4965	8056.852255799092	9
0	4967	8058.53056742356	8
0	4970	8059.481486493323	7
0	4973	8059.957594619811	6
0	4975	8061.871917257437	5
0	4977	8069.522196125864	6
0	4980	8072.922428878188	5
0	4982	8073.660312155733	4
0	4984	8076.590074498319	5
0	4987	8079.840438710596	6
0	4990	8085.948487342625	5
0	4992	8087.065761509262	4
0	4994	8092.162391588192	3
0	4996	8094.376332496441	4
0	4999	8096.932060707219	3
0	5001	8102.712799899876	2
0	5003	8103.992743399658	1
0	5005	8119.767069725181	2
0	5008	8120.67242722852	3
0	5011	8123.992295440217	2
0	5013	8128.828567885153	3
0	5016	8132.311378075872	4
0	5019	8133.089361477446	5
0	5022	8137.700151850032	6
0	5025	8138.064206922827	7
0	5028	8142.996449159387	8
0	5030	8143.581372530247	7
0	5033	8145.611245438217	6
0	5035	8153.626304692093	5
0	5037	8153.881921731918	6
0	5040	8157.923392136921	5
0	5042	8158.60288982843	6
0	5045	8158.813945409294	7
0	5048	8161.819344077954	6
0	5050	8163.100010934585	5
0	5052	8166.844414797742	6
0	5055	8169.569741215288	5
0	5057	8171.579891246676	4
0	5059	8172.289193059465	3
0	5061	8177.889784997619	4
0	5064	8185.4596634558	3
0	5066	8187.548892469796	4
0	5069	8193.821257594776	5
0	5072	8193.886021298707	4
0	5074	8195.21457469851	3
0	5076	8200.168469689777	4
0	5079	8206.24624924431	3
0	5081	8207.905543140232	4
0	5084	8213.010008326913	5
0	5087	8216.816815525677	6
0	5090	8217.269682336352	7
0	5093	8227.789989434933	8
0	5095	8228.017286526114	7
0	5098	8230.55509593171	8
0	5100	8232.683888057851	7
0	5103	8234.413860950994	6
0	5105	8236.743093760631	7
0	5108	8246.996227840917	8
0	5110	8247.343902154456	7
0	5113	8248.971082303932	6
0	5115	8252.381305637811	5
0	5117	8252.771262171756	4
0	5119	8259.710936718996	5
0	5122	8262.673472668727	6
0	5125	8265.895776787962	5
0	5127	8272.976794053486	4
0	5129	8282.415905346497	5
0	5132	8282.644975594725	6
0	5135	8298.792454607702	5
0	5137	8302.157421942469	6
0	5140	8305.822515951453	5
0	5142	8307.480537121085	6
0	5145	8313.319679441827	5
0	5147	8315.442127096694	6
0	5150	8321.140861158448	5
0	5152	8321.262767394578	4
0	5154	8322.193424732698	5
0	5157	8324.638787991872	4
0	5159	8326.751271214159	5
0	5162	8338.033082890051	6
0	5165	8346.248316577463	5
0	5167	8354.065668291384	4
0	5169	8358.229656391494	5
0	5172	8361.657037423882	6
0	5175	8370.189950116399	5
0	5177	8380.609780027151	6
0	5180	8384.133663740467	7
0	5183	8386.305333884671	6
0	5185	8386.318321916506	5
0	5187	8390.84413971072	4
0	5189	8392.678960505658	5
0	5192	8392.864898725258	4
0	5194	8397.366526712998	5
0	5197	8399.171940645072	4
0	5199	8403.477020992483	3
0	5201	8403.647732865524	4
0	5204	8409.494181096948	5
0	5207	8413.321479920139	4
0	5209	8431.029221350595	3
0	5211	8436.500046714495	4
0	5214	8436.709053864608	3
0	5216	8437.449934040011	2
0	5218	8440.164514447776	1
0	5220	8453.54726960443	0
0	5222	8453.666971278944	1
0	5225	8459.128758996433	2
0	5228	8475.19976010258	1
0	5230	8475.31306275067	2
0	5233	8478.39707202043	3
0	5236	8483.636583806424	4
0	5239	8484.437317237896	5
0	5242	8486.276231570876	4
0	5244	8487.651456118793	3
0	5246	8488.430218843425	4
0	5249	8489.073963399158	3
0	5251	8496.437334299913	4
0	5254	8498.133666738777	3
0	5256	8498.707283930449	4
0	5259	8502.48066088846	3
0	5261	8516.060625747887	4
0	5264	8519.644479552749	3
0	5266	8535.106097597137	2
0	5268	8538.303477396193	1
0	5270	8543.445224663237	0
0	5272	8546.73141181653	1
0	5275	8547.198185253446	2
0	5278	8548.806044959339	1
0	5280	8549.074855101274	2
0	5283	8555.734579809116	3
0	5286	8575.721337561344	2
0	5288	8599.619310625867	3
0	5291	8602.383821813906	4
0	5294	8607.118752982386	3
0	5296	8608.990441908524	4
0	5299	8627.906710662814	3
0	5301	8639.340729796795	2
0	5303	8639.991201204486	1
0	5305	8646.988008386642	2
0	5308	8667.287217670937	3
0	5311	8673.228653695754	4
0	5314	8673.735462535631	3
0	5316	8681.595147842618	4
0	5319	8681.695415499666	3
0	5321	8685.288918955796	4
0	5324	8689.323786198319	5
0	5327	8692.006057068126	4
0	5329	8703.216190010635	3
0	5331	8709.65115111157	4
0	5334	8717.505074651674	5
0	5337	8724.747593360035	4
0	5339	8725.54956966617	5
0	5342	8730.001765279439	6
0	5345	8730.246055160859	7
0	5348	8740.684315521918	6
0	5350	8747.07486797675	5
0	5352	8747.956357277428	4
0	5354	8750.211107467804	3
0	5356	8752.502521560519	2
0	5358	8754.169731022524	1
0	5360	8760.085809242012	2
0	5363	8761.36544560198	3
0	5366	8765.319765692647	2
0	5368	8768.277988755117	3
0	5371	8768.37355619104	4
0	5374	8775.703787835859	5
0	5377	8778.484693165167	6
0	5380	8779.826061648805	5
0	5382	8780.81897018069	4
0	5384	8783.985575269745	3
0	5386	8785.36900209719	2
0	5388	8789.761267709754	3
0	5391	8790.379467574862	4
0	5394	8799.255524655693	5
0	5397	8808.197278120562	6
0	5400	8809.034657960941	5
0	5402	8811.909967304685	4
0	5404	8817.923303251703	5
0	5407	8818.276581522954	6
0	5410	8823.133959557864	7
0	5413	8824.693502483704	6
0	5415	8825.865896820811	5
0	5417	8827.505723162694	6
0	5420	8829.374187715798	5
0	5422	8830.600106417836	6
0	5425	8832.349727671512	5
0	5427	8835.573042565192	4
0	5429	8837.5083669371	5
0	5432	8838.514008733859	4
0	5434	8839.608081777751	5
0	5437	8839.627811736716	4
0	5439	8840.446465249878	5
0	5442	8847.63936896798	4
0	5444	8849.018490830026	5
0	5447	8852.943180831704	4
0	5449	8862.736126539743	5
0	5452	8869.382533821869	6
0	5455	8873.782238507219	5
0	5457	8875.353352425621	4
0	5459	8876.526026384577	3
0	5461	8876.575603243025	2
0	5463	8879.546281160813	3
0	5466	8894.838754653042	4
0	5469	8899.587058855396	5
0	5472	8901.146554094978	4
0	5474	8913.487050197849	5
0	5477	8920.255425264388	4
0	5479	8923.157717806407	3
0	5481	8925.4906123326	4
0	5484	8928.733769097575	5
0	5487	8938.703176636036	4
0	5489	8939.205335190282	3
0	5491	8940.681013743646	4
0	5494	8943.882696529896	5
0	5497	8947.939566551871	4
0	5499	8948.175829748233	5
0	5502	8951.261160983867	6
0	5505	8952.88608188618	7
0	5508	8953.422303673858	6
0	5510	8955.440842207859	7
0	5513	8957.209673041535	8
0	5515	8958.795726866992	7
0	5518	8959.762084841128	6
0	5520	8959.954091013826	7
0	5523	8962.099103588921	6
0	5525	8968.79276623286	5
0	5527	8973.154029007263	6
0	5530	8977.214231407413	7
0	5533	8981.798351118713	6
0	5535	8985.516102392361	7
0	5538	8988.427395424953	6
0	5540	8990.200753743738	5
0	5542	8993.582080583177	4
0	5544	8995.05269853069	5
0	5547	8997.983401863615	6
0	5550	9000.710939831733	5
0	5552	9005.472639125926	4
0	5554	9008.639279391451	5
0	5557	9014.806531711089	6
0	5560	9015.143976579792	5
0	5562	9017.823514907332	6
0	5565	9026.43013777647	5
0	5567	9027.657718897687	6
0	5570	9029.146878046412	5
0	5572	9033.204783055362	6
0	5575	9035.566150217648	5
0	5577	9039.37209843871	6
0	5580	9046.120861056259	7
0	5583	9047.416853694925	6
0	5585	9049.682193868561	5
0	5587	9050.7434222574	4
0	5589	9051.791026176343	5
0	5592	9057.025133960935	4
0	5594	9064.898049050565	3
0	5596	9078.071307639259	4
0	5599	9091.25432713678	3
0	5601	9100.291881218668	2
0	5603	9104.460053420238	3
0	5606	9104.482434655916	2
0	5608	9104.487120275699	1
0	5610	9105.060930782518	0
0	5612	9110.837001141516	1
0	5615	9111.327882147917	2
0	5618	9116.717786442538	3
0	5621	9119.198112356504	4
0	5624	9123.810603478138	5
0	5627	9124.745570696804	4
0	5629	9133.339463373761	3
0	5631	9136.17544271837	4
0	5634	9157.66183772157	3
0	5636	9171.382354058353	4
0	5639	9180.641220557593	5
0	5642	9185.172175997889	6
0	5645	9192.773652315423	5
0	5647	9198.851293127048	4
0	5649	9200.395758988251	5
0	5652	9215.629701773506	4
0	5654	9217.170109462773	5
0	5657	9225.728983678358	4
0	5659	9237.883409623041	5
0	5662	9250.181811974566	4
0	5664	9253.21707808055	5
0	5667	9258.116716045218	4
0	5669	9263.950488061695	5
0	5672	9266.124162053073	6
0	5675	9266.299040196339	7
0	5678	9267.476889867733	8
0	5680	9268.089883392352	7
0	5683	9270.224321879069	6
0	5685	9270.403959912961	5
0	5687	9279.01440905357	4
0	5689	9279.552216821185	3
0	5691	9286.985841211168	2
0	5693	9287.537464319655	3
0	5696	9290.028956625452	4
0	5699	9290.337216164783	3
0	5701	9294.097402968593	2
0	5703	9297.727253476469	1
0	5705	9303.626143633188	2
0	5708	9306.067138709554	3
0	5711	9306.265064402158	4
0	5714	9311.152757148642	5
0	5717	9313.239680800412	6
0	5720	9316.361442364831	5
0	5722	9326.290775482885	4
0	5724	9329.495655671981	3
0	5726	9338.867948184489	4
0	5729	9340.225330250072	3
0	5731	9344.701079589962	4
0	5734	9345.570144972174	3
0	5736	9352.094273431714	2
0	5738	9361.167171320795	3
0	5741	9363.468721173147	2
0	5743	9367.530417812582	3
0	5746	9367.536834136736	2
0	5748	9370.082057229678	1
0	5750	9370.980620027526	2
0	5753	9387.583972635452	3
0	5756	9387.623071756132	4
0	5759	9402.675266622591	5
0	5762	9404.086960244413	4
0	5764	9407.117827525556	3
0	5766	9413.048348545631	2
0	5768	9417.564020120141	1
0	5770	9420.919596203311	2
0	5773	9425.357392825152	3
0	5776	9430.523009575333	4
0	5779	9434.496475346303	5
0	5782	9448.949800986838	4
0	5784	9451.616592784673	5
0	5787	9453.025178123598	6
0	5790	9461.964411731084	5
0	5792	9467.807201121033	4
0	5794	9469.282133525828	5
0	5797	9475.152140868109	6
0	5800	9476.25804308172	5
0	5802	9477.583111730803	6
0	5805	9490.386298871891	7
0	5808	9493.053727890066	6
0	5810	9495.229475492235	7
0	5813	9503.253678203543	6
0	5815	9505.002627792864	5
0	5817	9510.545315600981	6
0	5820	9511.00506505974	5
0	5822	9513.237386036288	6
0	5825	9519.967867624294	7
0	5828	9520.26962263056	6
0	5830	9520.497304077522	7
0	5833	9521.802744867748	8
0	5835	9522.651723528592	7
0	5838	9529.253465506812	6
0	5840	9533.980333998346	5
0	5842	9538.5394615087	4
0	5844	9541.778735133811	3
0	5846	9546.713937886503	2
0	5848	9547.700667239372	3
0	5851	9547.965816344191	2
0	5853	9560.428990235921	3
0	5856	9562.239813701953	4
0	5859	9566.410069578325	5
0	5862	9568.519850220063	4
0	5864	9573.013510485756	3
0	5866	9580.895781016595	4
0	5869	9586.406973249169	3
0	5871	9587.765209827634	2
0	5873	9591.548298903972	3
0	5876	9601.11350229953	2
0	5878	9603.099451428501	3
0	5881	9604.42794133264	2
0	5883	9605.107164976645	1
0	5885	9613.52704210818	2
0	5888	9622.009270855788	3
0	5891	9622.534769737994	2
0	5893	9623.369620288588	1
0	5895	9623.738943409657	2
0	5898	9633.478240799762	3
0	5901	9634.101408353596	4
0	5904	9645.365159065955	5
0	5907	9645.61983146835	4
0	5909	9651.14239547938	5
0	5912	9652.726728359873	4
0	5914	9653.248363734975	3
0	5916	9653.619103600872	4
0	5919	9664.609734895251	5
0	5922	9666.164345963971	4
0	5924	9677.025701814649	5
0	5927	9677.381956980981	6
0	5930	9678.63121842711	5
0	5932	9684.533291128854	6
0	5935	9686.517310623983	5
0	5937	9687.784902932769	6
0	5940	9693.861384426407	5
0	5942	9697.087203763094	4
0	5944	9700.009604184127	3
0	5946	9704.897629927929	2
0	5948	9707.417240888336	1
0	5950	9721.637312073116	0
0	5952	9740.321588113023	1
0	5955	9742.250902788651	2
0	5958	9743.909828092215	1
0	5960	9744.93299299937	2
0	5963	9745.480420075565	1
0	5965	9747.90234523702	0
0	5967	9769.686709534351	1
0	5970	9773.320105755758	2
0	5973	9777.923824896478	3
0	5976	9779.320544384717	4
0	5979	9791.962231044165	5
0	5982	9793.750170341588	4
0	5984	9796.439884913299	3
0	5986	9800.773405173276	4
0	5989	9807.676560288539	3
0	5991	9808.955925209937	2
0	5993	9813.445761054129	1
0	5995	9818.729182851469	2
0	5998	9825.120956382062	1
0	6000	9826.51082858947	2
0	6003	9827.499661174831	3
0	6006	9828.38540207462	4
0	6009	9831.677087031171	3
0	6011	9844.171062570744	2
0	6013	9850.955605988235	1
0	6015	9854.991584972836	0
0	6017	9877.833431746847	1
0	6020	9884.056162438387	2
0	6023	9890.349903397495	3
0	6026	9899.552098742237	4
0	6029	9903.915803742221	3
0	6031	9913.16034699962	4
0	6034	9913.612611440845	3
0	6036	9917.6772298489	4
0	6039	9919.117855145751	5
0	6042	9923.462956166017	4
0	6044	9927.493753606984	3
0	6046	9928.145330172552	2
0	6048	9929.998805675108	3
0	6051	9935.370894696249	2
0	6053	9940.665099566719	3
0	6056	9940.751650949807	4
0	6059	9948.747019157614	5
0	6062	9957.964516007224	4
0	6064	9962.504211457726	3
0	6066	9967.219324516197	2
0	6068	9968.551151154865	3
0	6071	9969.60280146328	4
0	6074	9975.844110758936	3
0	6076	9975.873984534651	4
0	6079	9976.104131626445	5
0	6082	9976.293069213243	4
0	6084	9978.830967744127	5
0	6087	9980.441611842917	4
0	6089	9986.951434996441	3
0	6091	9988.043244631159	4
0	6094	9992.049065792324	5
0	6097	9995.332033098522	4
0	6099	10005.31744547659	5
0	6102	10015.918595306164	4
0	6104	10022.42721051464	3
0	6106	10022.54490005663	4
0	6109	10025.912961974117	3
0	6111	10027.522948712479	4
0	6114	10032.421413724888	5
0	6117	10039.80482485983	6
0	6120	10044.11884793071	7
0	6123	10044.671152252483	8
0	6125	10044.94848650835	7
0	6128	10048.510976602125	8
0	6130	10051.300584557934	9
0	6132	10052.584645325422	8
0	6135	10054.360772255838	7
0	6138	10055.533837506241	6
0	6140	10056.923107015471	7
0	6143	10057.090003234097	8
0	6145	10064.911060419349	9
0	6147	10065.35827758727	8
0	6150	10066.001547695838	9
0	6152	10072.215832228274	8
0	6155	10076.056635368185	9
0	6157	10078.832581701549	8
0	6160	10082.768049360371	9
0	6162	10088.586356434835	8
0	6165	10107.358244620986	9
0	6167	10111.067358541006	8
0	6170	10112.046050655162	7
0	6173	10113.592198183251	8
0	6175	10116.220678695452	9
0	6177	10118.138887787609	10
0	6179	10120.211946871074	9
0	6182	10134.858833640963	8
0	6185	10136.537551676891	7
0	6188	10148.332943448462	6
0	6190	10154.285145670229	7
0	6193	10157.129828936062	6
0	6195	10164.012047709518	5
0	6197	10165.803933290369	6
0	6200	10176.702925181432	7
0	6203	10182.416777224677	6
0	6205	10185.632859252747	7
0	6208	10186.715694613546	6
0	6210	10189.568192683125	5
0	6212	10190.602990481588	4
0	6214	10199.235539305914	3
0	6216	10203.958991050238	2
0	6218	10209.162558432535	3
0	6221	10209.964311356644	2
0	6223	10210.943398221006	1
0	6225	10214.337021249365	0
0	6227	10218.352438800565	1
0	6230	10219.642515892188	0
0	6232	10220.310178467185	1
0	6235	10221.559113235957	2
0	6238	10235.221606011181	1
0	6240	10256.181765469782	2
0	6243	10264.014338987019	3
0	6246	10273.074824941626	4
0	6249	10280.539704202358	5
0	6252	10283.604027631585	6
0	6255	10287.014056036052	7
0	6258	10287.712444510298	8
0	6260	10290.168036879407	7
0	6263	10293.202624733977	6
0	6265	10296.563881717065	7
0	6268	10302.853402550773	8
0	6270	10310.745478462389	7
0	6273	10316.141195708143	6
0	6275	10327.209862758109	7
0	6278	10333.524940103407	6
0	6280	10335.55867892327	5
0	6282	10342.470969443152	4
0	6284	10352.119709100193	3
0	6286	10358.444077636176	2
0	6288	10366.666881716202	3
0	6291	10373.870553784467	2
0	6293	10375.967840667598	3
0	6296	10379.284052637865	2
0	6298	10379.648373454458	3
0	6301	10384.326824586756	2
0	6303	10393.842474828915	3
0	6306	10400.540745053474	4
0	6309	10401.038787738834	5
0	6312	10401.759595956511	6
0	6315	10408.456897393451	7
0	6318	10409.184144400303	8
0	6320	10411.975664100176	7
0	6323	10412.706583837448	8
0	6325	10420.495122768051	9
0	6327	10423.688635367196	10
0	6329	10438.739159711229	11
0	6331	10443.485649177879	10
0	6334	10444.039394636348	9
0	6337	10447.036059740871	10
0	6339	10447.630445397513	11
0	6341	10448.389182073399	12
0	6343	10450.387072485667	13
0	6345	10453.921323951971	12
0	6348	10455.118364459682	11
0	6351	10456.976347690158	10
0	6354	10457.610546250101	11
0	6356	10458.873526804808	12
0	6358	10463.06197005019	11
0	6361	10463.224900759373	10
0	6364	10469.000802329924	11
0	6366	10472.166316115602	10
0	6369	10473.311274886251	11
0	6371	10477.318173863271	10
0	6374	10487.659780030759	9
0	6377	10490.675312267849	10
0	6379	10491.235234441026	9
0	6382	10493.744192181566	8
0	6385	10504.080558410314	7
0	6388	10514.012795952896	8
0	6390	10517.812868230588	9
0	6392	10519.735098246563	8
0	6395	10520.78558850877	9
0	6397	10523.631452851356	8
0	6400	10523.775560032864	9
0	6402	10525.173405174711	10
0	6404	10525.6273605624	9
0	6407	10526.811888315102	8
0	6410	10531.235010562735	9
0	6412	10532.684363125206	10
0	6414	10536.709657769138	9
0	6417	10537.041920535499	8
0	6420	10539.103562867026	9
0	6422	10545.634413374671	8
0	6425	10546.704941493398	7
0	6428	10547.190812710132	8
0	6430	10547.591137597053	7
0	6433	10549.580983067851	6
0	6435	10560.776060757962	5
0	6437	10560.899004216327	6
0	6440	10560.962228377043	5
0	6442	10565.808755395763	4
0	6444	10566.923437602707	5
0	6447	10577.139388203226	6
0	6450	10580.363620016974	5
0	6452	10583.146559123317	4
0	6454	10589.998804317795	3
0	6456	10599.409964510392	4
0	6459	10600.840248408402	5
0	6462	10615.91205909801	4
0	6464	10621.431239451652	5
0	6467	10623.567486204098	6
0	6470	10627.118507844242	5
0	6472	10636.797274747845	6
0	6475	10637.561691621387	5
0	6477	10639.509491327006	6
0	6480	10640.106456831214	5
0	6482	10642.868334702659	6
0	6485	10644.035386877272	7
0	6488	10644.974716701723	6
0	6490	10651.165837983969	7
0	6493	10652.788344158012	6
0	6495	10652.985874117794	7
0	6498	10663.327082443446	8
0	6500	10663.913297917396	7
0	6503	10664.278713021269	6
0	6505	10665.360704725103	5
0	6507	10671.871082368062	4
0	6509	10677.617378311007	5
0	6512	10680.13181983009	6
0	6515	10680.612013641991	5
0	6517	10681.378895503896	4
0	6519	10687.919561483857	3
0	6521	10693.239500334223	4
0	6524	10694.084068708505	3
0	6526	10700.83690540717	2
0	6528	10701.010857784939	3
0	6531	10701.612032011066	4
0	6534	10710.199534780885	3
0	6536	10715.613284524022	4
0	6539	10717.855484452179	5
0	6542	10718.20541826321	6
0	6545	10721.80407846045	5
0	6547	10723.545863970592	6
0	6550	10723.829174984888	5
0	6552	10733.877177913715	6
0	6555	10734.426343624477	5
0	6557	10741.234895143469	4
0	6559	10741.67747129356	3
0	6561	10742.207591088173	2
0	6563	10742.878768894788	1
0	6565	10753.950895994403	2
0	6568	10755.068440461623	3
0	6571	10759.237805734943	4
0	6574	10765.180824735642	5
0	6577	10765.28891205172	4
0	6579	10766.059265030143	5
0	6582	10770.762203574797	6
0	6585	10770.777737325879	5
0	6587	10773.439337181141	4
0	6589	10776.160214001453	3
0	6591	10782.305074575087	4
0	6594	10786.651138562664	3
0	6596	10804.113666266922	4
0	6599	10804.743312893133	5
0	6602	10807.452317687634	4
0	6604	10808.14622460784	3
0	6606	10810.233951170389	4
0	6609	10812.005333884514	5
0	6612	10816.188159289479	6
0	6615	10817.92016563727	5
0	6617	10826.350759342702	4
0	6619	10829.351364881025	3
0	6621	10830.464514339294	2
0	6623	10842.826115642016	3
0	6626	10842.891228690746	4
0	6629	10853.001556868656	5
0	6632	10854.104104022274	4
0	6634	10855.771911624578	5
0	6637	10858.479720384686	4
0	6639	10858.618012057818	3
0	6641	10859.134966430584	4
0	6644	10864.232859142457	5
0	6647	10872.056092576577	6
0	6650	10874.13311208357	5
0	6652	10877.70191746373	6
0	6655	10881.878243502275	7
0	6658	10889.432781590814	8
0	6660	10894.20730578182	9
0	6662	10898.735944612231	10
0	6664	10908.71297715621	11
0	6666	10911.157487891422	10
0	6669	10924.511912958706	9
0	6672	10924.664091817286	8
0	6675	10925.050526512262	7
0	6678	10929.884595243638	6
0	6680	10934.719710786625	5
0	6682	10938.036590475615	4
0	6684	10940.226296631056	5
0	6687	10942.090385621845	4
0	6689	10945.778194676392	5
0	6692	10949.16680042704	6
0	6695	10952.289511100251	7
0	6698	10952.724749751404	6
0	6700	10962.426037980949	5
0	6702	10963.22126432172	6
0	6705	10970.15549880938	5
0	6707	10970.64292102317	4
0	6709	10971.624838058944	3
0	6711	10978.143801042415	2
0	6713	10992.172240772994	3
0	6716	10994.626394210804	4
0	6719	11004.836114565302	3
0	6721	11009.69606629263	4
0	6724	11011.206814118979	5
0	6727	11014.373085027359	6
0	6730	11015.486698143974	7
0	6733	11021.226394391988	6
0	6735	11028.097462823105	5
0	6737	11030.046360038369	4
0	6739	11043.582693898686	3
0	6741	11049.929310499426	4
0	6744	11051.433896878549	5
0	6747	11053.587422694086	6
0	6750	11062.496956686681	7
0	6753	11062.86636443599	6
0	6755	11070.000565555545	7
0	6758	11075.528098981272	8
0	6760	11081.383626454641	9
0	6762	11084.692374106049	10
0	6764	11091.999961508672	11
0	6766	11093.518560495788	12
0	6768	11097.29510551168	11
0	6771	11099.118142653661	12
0	6773	11106.243219748488	11
0	6776	11107.814098892416	10
0	6779	11108.023942482826	9
0	6782	11109.304591279066	8
0	6785	11110.552320800149	9
0	6787	11110.682586651466	8
0	6790	11111.632799128831	7
0	6793	11112.960978280615	6
0	6795	11115.121668410006	7
0	6798	11115.147842212063	6
0	6800	11115.357728086914	5
0	6802	11125.689002409892	6
0	6805	11135.736908343539	7
0	6808	11136.007563653513	6
0	6810	11136.299229774559	5
0	6812	11139.415655813278	4
0	6814	11139.610359950533	3
0	6816	11142.869172502552	2
0	6818	11147.603294029737	3
0	6821	11149.65531635669	4
0	6824	11150.549527124463	3
0	6826	11164.946196305617	4
0	6829	11175.25790264511	3
0	6831	11179.173553753079	4
0	6834	11192.279448836722	3
0	6836	11198.939488349162	2
0	6838	11213.316839885532	1
0	6840	11220.986330201828	2
0	6843	11231.194304732612	1
0	6845	11248.718165675187	2
0	6848	11248.937412424777	3
0	6851	11253.250732409575	4
0	6854	11254.913579906062	5
0	6857	11255.656650906164	6
0	6860	11260.143725053963	7
0	6863	11261.60211106729	6
0	6865	11261.764077382428	5
0	6867	11274.490838251103	4
0	6869	11283.104484432164	5
0	6872	11284.230172367727	6
0	6875	11284.869306917673	5
0	6877	11286.794185779281	6
0	6880	11293.12883619937	7
0	6883	11295.669688622365	6
0	6885	11298.031280974893	5
0	6887	11299.142260565197	4
0	6889	11305.900675228987	5
0	6892	11313.321344895305	6
0	6895	11313.456088495954	5
0	6897	11314.012938777033	6
0	6900	11318.707534667829	5
0	6902	11328.829129109398	6
0	6905	11333.150955363597	7
0	6908	11334.245761683468	8
0	6910	11341.043490706403	9
0	6912	11342.933025127505	8
0	6915	11344.162371007355	7
0	6918	11346.221801242814	6
0	6920	11346.753224952986	7
0	6923	11348.007079788219	8
0	6925	11352.647765144185	9
0	6927	11355.843190487723	8
0	6930	11359.973002134533	7
0	6933	11362.430962015129	6
0	6935	11363.616783123083	5
0	6937	11368.468299291718	6
0	6940	11372.602651469947	5
0	6942	11374.597563563777	6
0	6945	11376.107702527573	7
0	6948	11386.103844298701	6
0	6950	11387.928038388993	5
0	6952	11392.653705617123	6
0	6955	11398.760959078314	5
0	6957	11399.478062663318	4
0	6959	11405.937740939915	5
0	6962	11410.620706626027	4
0	6964	11410.905122677535	3
0	6966	11415.84116105936	4
0	6969	11422.652518900746	5
0	6972	11428.392996481959	6
0	6975	11430.621643270805	5
0	6977	11431.125341341981	6
0	6980	11440.015506142065	5
0	6982	11441.546635131974	6
0	6985	11453.862992739838	7
0	6988	11457.650804559221	8
0	6990	11461.853909778573	9
0	6992	11462.754877728918	10
0	6994	11464.826432867818	9
0	6997	11467.696686152579	8
0	7000	11469.924666591838	9
0	7002	11475.381645194588	8
0	7005	11475.682894922668	9
0	7007	11476.178142506703	8
0	7010	11478.576344806766	9
0	7012	11479.901254342546	10
0	7014	11480.564820283392	9
0	7017	11483.35923797597	10
0	7019	11493.533405548164	11
0	7021	11498.39945686024	10
0	7024	11499.453096200165	9
0	7027	11502.160188883847	8
0	7030	11506.363610185816	7
0	7033	11506.810562762805	6
0	7035	11513.341736109755	7
0	7038	11515.632933411872	6
0	7040	11515.763419100503	7
0	7043	11518.426325055668	6
0	7045	11519.939193003033	7
0	7048	11519.946530453935	8
0	7050	11526.682850211546	7
0	7053	11532.946320052928	6
0	7055	11540.998275793102	5
0	7057	11549.865682623391	4
0	7059	11553.710303160389	5
0	7062	11554.09177570742	6
0	7065	11557.617657366329	7
0	7068	11557.839328328478	6
0	7070	11562.45809266472	7
0	7073	11563.695974514216	6
0	7075	11566.938952501592	5
0	7077	11567.634791704241	4
0	7079	11570.142199719589	3
0	7081	11570.252994680656	4
0	7084	11581.469303061966	5
0	7087	11582.566054488343	4
0	7089	11586.057551506616	5
0	7092	11586.474620256533	6
0	7095	11587.333053747156	5
0	7097	11588.930064836904	4
0	7099	11591.837074459074	5
0	7102	11595.906352804407	6
0	7105	11596.524070810261	5
0	7107	11597.598147311122	6
0	7110	11603.338710523037	5
0	7112	11610.403049599261	4
0	7114	11610.489784660745	3
0	7116	11625.831602984156	4
0	7119	11627.634281276025	5
0	7122	11631.747633472375	4
0	7124	11634.913356916433	5
0	7127	11637.763952857124	4
0	7129	11644.573046098043	5
0	7132	11646.876401736779	4
0	7134	11647.3703051497	3
0	7136	11653.699460608996	2
0	7138	11655.879483218696	3
0	7141	11656.537690215854	4
0	7144	11656.594216492546	5
0	7147	11671.92041402949	6
0	7150	11672.553660917549	7
0	7153	11677.85205441765	8
0	7155	11681.801337279377	7
0	7158	11685.122976392528	8
0	7160	11685.300363820171	9
0	7162	11685.582684310997	10
0	7164	11687.086630785261	9
0	7167	11687.862683749805	10
0	7169	11696.566982599982	9
0	7172	11697.666692708107	8
0	7175	11712.315790056384	9
0	7177	11713.734743391274	8
0	7180	11716.928348249391	7
0	7183	11722.976441559673	6
0	7185	11727.420803402282	7
0	7188	11727.760034684812	6
0	7190	11732.079227240928	7
0	7193	11732.844306496997	8
0	7195	11735.335268699741	9
0	7197	11743.665598639791	8
0	7200	11743.859279486439	7
0	7203	11747.47851731416	8
0	7205	11750.58566421417	7
0	7208	11750.828906729418	6
0	7210	11751.13851196193	7
0	7213	11752.251465038011	6
0	7215	11756.172045357598	5
0	7217	11757.362944346146	4
0	7219	11761.282832003564	5
0	7222	11764.63381255114	6
0	7225	11765.293562560299	7
0	7228	11767.328264807794	6
0	7230	11771.435943335447	5
0	7232	11771.699680305156	4
0	7234	11775.253168401294	5
0	7237	11781.224911142109	4
0	7239	11782.847621752891	3
0	7241	11787.498582337018	2
0	7243	11787.647304310054	3
0	7246	11793.914019230445	2
0	7248	11800.448401796207	3
0	7251	11800.546809873468	2
0	7253	11802.319076829097	1
0	7255	11825.323790903555	2
0	7258	11831.064230551819	3
0	7261	11832.888322216085	4
0	7264	11833.590953054455	3
0	7266	11833.681892569508	2
0	7268	11833.969146347697	3
0	7271	11841.891534823715	4
0	7274	11845.922817360373	5
0	7277	11848.959335939578	6
0	7280	11848.986697704062	7
0	7283	11849.336635618228	6
0	7285	11856.366507100344	7
0	7288	11857.222006463863	6
0	7290	11859.145601701117	5
0	7292	11860.899298380167	6
0	7295	11862.51261479468	5
0	7297	11866.370133463875	4
0	7299	11869.764876316633	5
0	7302	11872.338207383064	4
0	7304	11877.198069689661	3
0	7306	11879.552728825224	2
0	7308	11882.377130502675	3
0	7311	11885.105709591356	4
0	7314	11885.837137339031	3
0	7316	11888.014056449805	4
0	7319	11890.058824340521	3
0	7321	11893.233402050887	4
0	7324	11893.755875232774	3
0	7326	11904.010098184645	2
0	7328	11906.867395854626	1
0	7330	11921.342600811531	2
0	7333	11926.399501219682	3
0	7336	11929.525072640849	2
0	7338	11948.266811073809	3
0	7341	11951.633398396039	2
0	7343	11959.67291031361	3
0	7346	11961.854701176763	4
0	7349	11971.381584220052	3
0	7351	11971.601317666743	4
0	7354	11983.571882597566	5
0	7357	11983.945962673065	4
0	7359	11984.596814169871	3
0	7361	11986.479583860576	4
0	7364	11988.200017453584	5
0	7367	11989.847412157522	6
0	7370	12003.986273929492	5
0	7372	12008.720358966439	6
0	7375	12013.150637381597	5
0	7377	12017.044443696481	4
0	7379	12019.099542597203	3
0	7381	12019.74894988227	2
0	7383	12020.857512891784	3
0	7386	12027.605104157464	4
0	7389	12028.617395530639	5
0	7392	12042.695069842832	6
0	7395	12052.860790744804	5
0	7397	12056.193758137515	4
0	7399	12056.370470619408	3
0	7401	12065.70972202387	2
0	7403	12071.440806902615	3
0	7406	12086.614657850286	2
0	7408	12095.238825879566	3
0	7411	12101.456324972988	2
0	7413	12116.176259761729	1
0	7415	12128.000537715581	2
0	7418	12132.121874703986	3
0	7421	12137.513332640569	4
0	7424	12161.46509215052	5
0	7427	12166.684322295934	4
0	7429	12169.801708157531	5
0	7432	12180.345910662927	6
0	7435	12187.461953353204	5
0	7437	12194.319010634704	6
0	7440	12196.638631825857	5
0	7442	12198.034344982319	4
0	7444	12217.00663811435	5
0	7447	12217.661606013184	4
0	7449	12220.653027958401	5
0	7452	12227.801359984171	4
0	7454	12233.445365305095	5
0	7457	12245.151262281802	6
0	7460	12249.657394405267	5
0	7462	12251.14255512345	6
0	7465	12252.843953649091	5
0	7467	12253.968461286641	4
0	7469	12254.072784340806	5
0	7472	12259.122121620233	4
0	7474	12261.200809319601	5
0	7477	12265.133421900688	4
0	7479	12267.786832811569	3
0	7481	12274.710522993538	2
0	7483	12286.4932896659	1
0	7485	12292.897898702331	2
0	7488	12293.357070199367	3
0	7491	12294.979817238433	2
0	7493	12309.42688287299	3
0	7496	12315.366355628002	2
0	7498	12340.088499223893	3
0	7501	12342.372214396528	4
0	7504	12342.677731377566	3
0	7506	12346.154052097599	4
0	7509	12354.819461075886	5
0	7512	12356.746127130026	4
0	7514	12359.442205129731	3
0	7516	12363.12746407924	4
0	7519	12374.678833543243	5
0	7522	12376.042573110586	4
0	7524	12379.076532493821	5
0	7527	12380.240867348537	6
0	7530	12380.928150637528	7
0	7533	12384.547820359913	6
0	7535	12386.877492164613	5
0	7537	12387.470521770411	4
0	7539	12393.69799217064	5
0	7542	12395.118531992037	6
0	7545	12396.437394292429	7
0	7548	12400.53501983714	6
0	7550	12403.423042607445	7
0	7553	12404.413005235038	6
0	7555	12407.86065472837	7
0	7558	12410.214852431556	8
0	7560	12412.020904286418	9
0	7562	12415.898102179098	8
0	7565	12421.686262932217	9
0	7567	12422.005963606174	8
0	7570	12422.869056558462	9
0	7572	12426.109203922871	10
0	7574	12429.793872498616	11
0	7576	12435.004047495979	10
0	7579	12435.030115857576	11
0	7581	12437.42276229553	12
0	7583	12437.713169159601	11
0	7586	12441.874296500315	10
0	7589	12441.991982227021	11
0	7591	12462.080828643971	12
0	7593	12463.066727300819	13
0	7595	12465.764616442736	12
0	7598	12469.262710373302	11
0	7601	12470.24362288687	10
0	7604	12474.402352380363	9
0	7607	12474.416252889655	10
0	7609	12475.096770118489	9
0	7612	12478.936648179928	8
0	7615	12481.386629881478	7
0	7618	12482.824348530514	8
0	7620	12484.454710396194	7
0	7623	12485.014765337406	8
0	7625	12487.683490235334	9
0	7627	12490.810335901475	10
0	7629	12499.829951893754	11
0	7631	12500.33932670492	10
0	7634	12501.737283308367	9
0	7637	12504.232137733351	10
0	7639	12504.327871907063	9
0	7642	12504.586182465993	10
0	7644	12505.267129980442	9
0	7647	12506.480948765501	10
0	7649	12519.868431354211	9
0	7652	12529.132929803402	10
0	7654	12530.418220780631	9
0	7657	12532.712351582909	10
0	7659	12534.955889228472	9
0	7662	12536.679061950073	8
0	7665	12536.834995879858	9
0	7667	12545.555957800156	10
0	7669	12549.848287666785	9
0	7672	12552.290039905922	10
0	7674	12556.280196866219	11
0	7676	12566.121526007388	12
0	7678	12566.312901304774	13
0	7680	12568.468760923775	14
0	7682	12569.816580663029	13
0	7685	12573.287346846942	12
0	7688	12578.066081402073	11
0	7691	12578.929206402276	10
0	7694	12587.408325774473	9
0	7697	12587.650949039305	10
0	7699	12593.817676345277	11
0	7701	12593.895582841223	12
0	7703	12599.103197176651	11
0	7706	12600.849849151539	12
0	7708	12601.492299399047	11
0	7711	12603.944463626705	12
0	7713	12608.966998654205	11
0	7716	12610.249396784228	12
0	7718	12622.648504354997	13
0	7720	12623.747968460039	14
0	7722	12623.96330568462	15
0	7724	12626.752360858891	16
0	7726	12630.290758824105	15
0	7729	12631.400138050322	16
0	7731	12632.186974900426	15
0	7734	12633.038399790429	14
0	7737	12634.567883566546	15
0	7739	12635.215010729351	14
0	7742	12635.958859481993	13
0	7745	12647.178959417774	14
0	7747	12653.183829427843	13
0	7750	12657.00920191993	12
0	7753	12657.732403637395	11
0	7756	12659.769902145908	10
0	7759	12660.916860547154	11
0	7761	12663.075146640329	12
0	7763	12666.310322494858	11
0	7766	12671.268061647484	12
0	7768	12672.016032735939	11
0	7771	12673.759021464386	10
0	7774	12679.177890101744	11
0	7776	12680.064572694434	10
0	7779	12682.910992452511	11
0	7781	12685.024560309941	10
0	7784	12689.059390936809	9
0	7787	12690.264734411633	8
0	7790	12697.506474681352	7
0	7793	12702.327913995519	6
0	7795	12705.740603824884	7
0	7798	12709.571402284722	8
0	7800	12713.6917249641	9
0	7802	12715.247519727894	10
0	7804	12719.538976337473	9
0	7807	12722.924272245462	8
0	7810	12723.856214324652	9
0	7812	12729.256782434581	10
0	7814	12729.410958240364	9
0	7817	12729.564805541902	8
0	7820	12729.921636031659	9
0	7822	12732.323156179432	8
0	7825	12733.039005352339	9
0	7827	12733.455535388929	10
0	7829	12733.526813844065	9
0	7832	12734.88408572319	10
0	7834	12735.072244545405	11
0	7836	12737.390610938122	10
0	7839	12740.990625323512	11
0	7841	12746.66013273551	10
0	7844	12747.425865084742	11
0	7846	12750.784111980161	10
0	7849	12751.096043020436	11
0	7851	12757.785193833226	10
0	7854	12766.423150808778	9
0	7857	12776.516999690336	10
0	7859	12786.522884448491	11
0	7861	12786.680236628371	10
0	7864	12786.853309893458	11
0	7866	12787.565901435311	12
0	7868	12788.145268630401	13
0	7870	12794.603495940001	12
0	7873	12796.70106698624	13
0	7875	12801.607035574113	12
0	7878	12803.122816190314	13
0	7880	12805.230629506434	12
0	7883	12805.407434022036	11
0	7886	12811.519396362902	10
0	7889	12816.487578171973	11
0	7891	12821.245673556405	12
0	7893	12830.464943454972	13
0	7895	12833.656958409434	12
0	7898	12838.699676464348	11
0	7901	12839.807648954824	12
0	7903	12841.343514956439	11
0	7906	12844.093265653137	10
0	7909	12847.402960807916	11
0	7911	12852.955372359272	10
0	7914	12854.038943978527	9
0	7917	12855.603435370168	8
0	7920	12859.573909738769	7
0	7923	12861.889657609097	8
0	7925	12869.390082330675	7
0	7928	12873.383266100102	6
0	7930	12880.003495598103	7
0	7933	12880.07255398007	6
0	7935	12885.069859546465	7
0	7938	12888.707915707504	6
0	7940	12890.058235439895	5
0	7942	12902.4378280388	6
0	7945	12906.833478985322	7
0	7948	12907.22263816004	8
0	7950	12909.927713791115	7
0	7953	12921.067492168814	6
0	7955	12926.936923305442	7
0	7958	12933.094943401411	8
0	7960	12933.322855653795	9
0	7962	12934.677976579222	8
0	7965	12935.190790302873	9
0	7967	12935.379606344748	10
0	7969	12940.102338162668	11
0	7971	12963.2610021407	12
0	7973	12966.383687741987	11
0	7976	12966.851698728855	12
0	7978	12968.971020678058	13
0	7980	12969.719516802207	12
0	7983	12970.985401555447	13
0	7985	12976.031612247066	12
[...]
1	7021	11498.39945686024	3
1	7024	11499.453096200165	2
1	7027	11502.160188883847	1
1	7030	11506.363610185816	0
1	7033	11506.810562762805	0
1	7035	11513.341736109755	0
1	7038	11515.632933411872	0
1	7040	11515.763419100503	0
1	7043	11518.426325055668	0
1	7045	11519.939193003033	0
1	7048	11519.946530453935	1
1	7050	11526.682850211546	0
1	7053	11532.946320052928	0
1	7055	11540.998275793102	0
1	7057	11549.865682623391	0
1	7059	11553.710303160389	0
1	7062	11554.09177570742	0
1	7065	11557.617657366329	0
1	7068	11557.839328328478	0
1	7070	11562.45809266472	0
1	7073	11563.695974514216	0
1	7075	11566.938952501592	0
1	7077	11567.634791704241	0
1	7079	11570.142199719589	0
1	7081	11570.252994680656	0
1	7084	11581.469303061966	0
1	7087	11582.566054488343	0
1	7089	11586.057551506616	0
1	7092	11586.474620256533	0
1	7095	11587.333053747156	0
1	7097	11588.930064836904	0
1	7099	11591.837074459074	0
1	7102	11595.906352804407	0
1	7105	11596.524070810261	0
1	7107	11597.598147311122	0
1	7110	11603.338710523037	0
1	7112	11610.403049599261	0
1	7114	11610.489784660745	0
1	7116	11625.831602984156	0
1	7119	11627.634281276025	0
1	7122	11631.747633472375	0
1	7124	11634.913356916433	0
1	7127	11637.763952857124	0
1	7129	11644.573046098043	0
1	7132	11646.876401736779	0
1	7134	11647.3703051497	0
1	7136	11653.699460608996	0
1	7138	11655.879483218696	0
1	7141	11656.537690215854	0
1	7144	11656.594216492546	0
1	7147	11671.92041402949	0
1	7150	11672.553660917549	0
1	7153	11677.85205441765	1
1	7155	11681.801337279377	0
1	7158	11685.122976392528	1
1	7160	11685.300363820171	2
1	7162	11685.582684310997	3
1	7164	11687.086630785261	2
1	7167	11687.862683749805	3
1	7169	11696.566982599982	2
1	7172	11697.666692708107	1
1	7175	11712.315790056384	2
1	7177	11713.734743391274	1
1	7180	11716.928348249391	0
1	7183	11722.976441559673	0
1	7185	11727.420803402282	0
1	7188	11727.760034684812	0
1	7190	11732.079227240928	0
1	7193	11732.844306496997	1
1	7195	11735.335268699741	2
1	7197	11743.665598639791	1
1	7200	11743.859279486439	0
1	7203	11747.47851731416	1
1	7205	11750.58566421417	0
1	7208	11750.828906729418	0
1	7210	11751.13851196193	0
1	7213	11752.251465038011	0
1	7215	11756.172045357598	0
1	7217	11757.362944346146	0
1	7219	11761.282832003564	0
1	7222	11764.63381255114	0
1	7225	11765.293562560299	0
1	7228	11767.328264807794	0
1	7230	11771.435943335447	0
1	7232	11771.699680305156	0
1	7234	11775.253168401294	0
1	7237	11781.224911142109	0
1	7239	11782.847621752891	0
1	7241	11787.498582337018	0
1	7243	11787.647304310054	0
1	7246	11793.914019230445	0
1	7248	11800.448401796207	0
1	7251	11800.546809873468	0
1	7253	11802.319076829097	0
1	7255	11825.323790903555	0
1	7258	11831.064230551819	0
1	7261	11832.888322216085	0
1	7264	11833.590953054455	0
1	7266	11833.681892569508	0
1	7268	11833.969146347697	0
1	7271	11841.891534823715	0
1	7274	11845.922817360373	0
1	7277	11848.959335939578	0
1	7280	11848.986697704062	0
1	7283	11849.336635618228	0
1	7285	11856.366507100344	0
1	7288	11857.222006463863	0
1	7290	11859.145601701117	0
1	7292	11860.899298380167	0
1	7295	11862.51261479468	0
1	7297	11866.370133463875	0
1	7299	11869.764876316633	0
1	7302	11872.338207383064	0
1	7304	11877.198069689661	0
1	7306	11879.552728825224	0
1	7308	11882.377130502675	0
1	7311	11885.105709591356	0
1	7314	11885.837137339031	0
1	7316	11888.014056449805	0
1	7319	11890.058824340521	0
1	7321	11893.233402050887	0
1	7324	11893.755875232774	0
1	7326	11904.010098184645	0
1	7328	11906.867395854626	0
1	7330	11921.342600811531	0
1	7333	11926.399501219682	0
1	7336	11929.525072640849	0
1	7338	11948.266811073809	0
1	7341	11951.633398396039	0
1	7343	11959.67291031361	0
1	7346	11961.854701176763	0
1	7349	11971.381584220052	0
1	7351	11971.601317666743	0
1	7354	11983.571882597566	0
1	7357	11983.945962673065	0
1	7359	11984.596814169871	0
1	7361	11986.479583860576	0
1	7364	11988.200017453584	0
1	7367	11989.847412157522	0
1	7370	12003.986273929492	0
1	7372	12008.720358966439	0
1	7375	12013.150637381597	0
1	7377	12017.044443696481	0
1	7379	12019.099542597203	0
1	7381	12019.74894988227	0
1	7383	12020.857512891784	0
1	7386	12027.605104157464	0
1	7389	12028.617395530639	0
1	7392	12042.695069842832	0
1	7395	12052.860790744804	0
1	7397	12056.193758137515	0
1	7399	12056.370470619408	0
1	7401	12065.70972202387	0
1	7403	12071.440806902615	0
1	7406	12086.614657850286	0
1	7408	12095.238825879566	0
1	7411	12101.456324972988	0
1	7413	12116.176259761729	0
1	7415	12128.000537715581	0
1	7418	12132.121874703986	0
1	7421	12137.513332640569	0
1	7424	12161.46509215052	0
1	7427	12166.684322295934	0
1	7429	12169.801708157531	0
1	7432	12180.345910662927	0
1	7435	12187.461953353204	0
1	7437	12194.319010634704	0
1	7440	12196.638631825857	0
1	7442	12198.034344982319	0
1	7444	12217.00663811435	0
1	7447	12217.661606013184	0
1	7449	12220.653027958401	0
1	7452	12227.801359984171	0
1	7454	12233.445365305095	0
1	7457	12245.151262281802	0
1	7460	12249.657394405267	0
1	7462	12251.14255512345	0
1	7465	12252.843953649091	0
1	7467	12253.968461286641	0
1	7469	12254.072784340806	0
1	7472	12259.122121620233	0
1	7474	12261.200809319601	0
1	7477	12265.133421900688	0
1	7479	12267.786832811569	0
1	7481	12274.710522993538	0
1	7483	12286.4932896659	0
1	7485	12292.897898702331	0
1	7488	12293.357070199367	0
1	7491	12294.979817238433	0
1	7493	12309.42688287299	0
1	7496	12315.366355628002	0
1	7498	12340.088499223893	0
1	7501	12342.372214396528	0
1	7504	12342.677731377566	0
1	7506	12346.154052097599	0
1	7509	12354.819461075886	0
1	7512	12356.746127130026	0
1	7514	12359.442205129731	0
1	7516	12363.12746407924	0
1	7519	12374.678833543243	0
1	7522	12376.042573110586	0
1	7524	12379.076532493821	0
1	7527	12380.240867348537	0
1	7530	12380.928150637528	0
1	7533	12384.547820359913	0
1	7535	12386.877492164613	0
1	7537	12387.470521770411	0
1	7539	12393.69799217064	0
1	7542	12395.118531992037	0
1	7545	12396.437394292429	0
1	7548	12400.53501983714	0
1	7550	12403.423042607445	0
1	7553	12404.413005235038	0
1	7555	12407.86065472837	0
1	7558	12410.214852431556	1
1	7560	12412.020904286418	2
1	7562	12415.898102179098	1
1	7565	12421.686262932217	2
1	7567	12422.005963606174	1
1	7570	12422.869056558462	2
1	7572	12426.109203922871	3
1	7574	12429.793872498616	4
1	7576	12435.004047495979	3
1	7579	12435.030115857576	4
1	7581	12437.42276229553	5
1	7583	12437.713169159601	4
1	7586	12441.874296500315	3
1	7589	12441.991982227021	4
1	7591	12462.080828643971	5
1	7593	12463.066727300819	6
1	7595	12465.764616442736	5
1	7598	12469.262710373302	4
1	7601	12470.24362288687	3
1	7604	12474.402352380363	2
1	7607	12474.416252889655	3
1	7609	12475.096770118489	2
1	7612	12478.936648179928	1
1	7615	12481.386629881478	0
1	7618	12482.824348530514	1
1	7620	12484.454710396194	0
1	7623	12485.014765337406	1
1	7625	12487.683490235334	2
1	7627	12490.810335901475	3
1	7629	12499.829951893754	4
1	7631	12500.33932670492	3
1	7634	12501.737283308367	2
1	7637	12504.232137733351	3
1	7639	12504.327871907063	2
1	7642	12504.586182465993	3
1	7644	12505.267129980442	2
1	7647	12506.480948765501	3
1	7649	12519.868431354211	2
1	7652	12529.132929803402	3
1	7654	12530.418220780631	2
1	7657	12532.712351582909	3
1	7659	12534.955889228472	2
1	7662	12536.679061950073	1
1	7665	12536.834995879858	2
1	7667	12545.555957800156	3
1	7669	12549.848287666785	2
1	7672	12552.290039905922	3
1	7674	12556.280196866219	4
1	7676	12566.121526007388	5
1	7678	12566.312901304774	6
1	7680	12568.468760923775	7
1	7682	12569.816580663029	6
1	7685	12573.287346846942	5
1	7688	12578.066081402073	4
1	7691	12578.929206402276	3
1	7694	12587.408325774473	2
1	7697	12587.650949039305	3
1	7699	12593.817676345277	4
1	7701	12593.895582841223	5
1	7703	12599.103197176651	4
1	7706	12600.849849151539	5
1	7708	12601.492299399047	4
1	7711	12603.944463626705	5
1	7713	12608.966998654205	4
1	7716	12610.249396784228	5
1	7718	12622.648504354997	6
1	7720	12623.747968460039	7
1	7722	12623.96330568462	8
1	7724	12626.752360858891	9
1	7726	12630.290758824105	8
1	7729	12631.400138050322	9
1	7731	12632.186974900426	8
1	7734	12633.038399790429	7
1	7737	12634.567883566546	8
1	7739	12635.215010729351	7
1	7742	12635.958859481993	6
1	7745	12647.178959417774	7
1	7747	12653.183829427843	6
1	7750	12657.00920191993	5
1	7753	12657.732403637395	4
1	7756	12659.769902145908	3
1	7759	12660.916860547154	4
1	7761	12663.075146640329	5
1	7763	12666.310322494858	4
1	7766	12671.268061647484	5
1	7768	12672.016032735939	4
1	7771	12673.759021464386	3
1	7774	12679.177890101744	4
1	7776	12680.064572694434	3
1	7779	12682.910992452511	4
1	7781	12685.024560309941	3
1	7784	12689.059390936809	2
1	7787	12690.264734411633	1
1	7790	12697.506474681352	0
1	7793	12702.327913995519	0
1	7795	12705.740603824884	0
1	7798	12709.571402284722	1
1	7800	12713.6917249641	2
1	7802	12715.247519727894	3
1	7804	12719.538976337473	2
1	7807	12722.924272245462	1
1	7810	12723.856214324652	2
1	7812	12729.256782434581	3
1	7814	12729.410958240364	2
1	7817	12729.564805541902	1
1	7820	12729.921636031659	2
1	7822	12732.323156179432	1
1	7825	12733.039005352339	2
1	7827	12733.455535388929	3
1	7829	12733.526813844065	2
1	7832	12734.88408572319	3
1	7834	12735.072244545405	4
1	7836	12737.390610938122	3
1	7839	12740.990625323512	4
1	7841	12746.66013273551	3
1	7844	12747.425865084742	4
1	7846	12750.784111980161	3
1	7849	12751.096043020436	4
1	7851	12757.785193833226	3
1	7854	12766.423150808778	2
1	7857	12776.516999690336	3
1	7859	12786.522884448491	4
1	7861	12786.680236628371	3
1	7864	12786.853309893458	4
1	7866	12787.565901435311	5
1	7868	12788.145268630401	6
1	7870	12794.603495940001	5
1	7873	12796.70106698624	6
1	7875	12801.607035574113	5
1	7878	12803.122816190314	6
1	7880	12805.230629506434	5
1	7883	12805.407434022036	4
1	7886	12811.519396362902	3
1	7889	12816.487578171973	4
1	7891	12821.245673556405	5
1	7893	12830.464943454972	6
1	7895	12833.656958409434	5
1	7898	12838.699676464348	4
1	7901	12839.807648954824	5
1	7903	12841.343514956439	4
1	7906	12844.093265653137	3
1	7909	12847.402960807916	4
1	7911	12852.955372359272	3
1	7914	12854.038943978527	2
1	7917	12855.603435370168	1
1	7920	12859.573909738769	0
1	7923	12861.889657609097	1
1	7925	12869.390082330675	0
1	7928	12873.383266100102	0
1	7930	12880.003495598103	0
1	7933	12880.07255398007	0
1	7935	12885.069859546465	0
1	7938	12888.707915707504	0
1	7940	12890.058235439895	0
1	7942	12902.4378280388	0
1	7945	12906.833478985322	0
1	7948	12907.22263816004	1
1	7950	12909.927713791115	0
1	7953	12921.067492168814	0
1	7955	12926.936923305442	0
1	7958	12933.094943401411	1
1	7960	12933.322855653795	2
1	7962	12934.677976579222	1
1	7965	12935.190790302873	2
1	7967	12935.379606344748	3
1	7969	12940.102338162668	4
1	7971	12963.2610021407	5
1	7973	12966.383687741987	4
1	7976	12966.851698728855	5
1	7978	12968.971020678058	6
1	7980	12969.719516802207	5
1	7983	12970.985401555447	6
1	7985	12976.031612247066	5
1	7988	12978.576179185586	4
1	7991	12979.37553838205	3
1	7994	12981.622029235267	4
1	7996	12990.297935974894	3
1	7999	12990.737361226333	2
1	8002	12992.786040852574	1
1	8005	13002.250638279892	0
1	8008	13003.872376984783	1
1	8010	13003.996985305743	0
1	8013	13017.18025446931	0
1	8015	13028.013953940546	0
1	8018	13038.192738869472	0
1	8020	13039.870682993836	0
1	8022	13053.214756354493	0
1	8025	13056.073934268356	0
1	8028	13061.419288622278	0
1	8030	13063.687692350495	0
1	8033	13065.086906487004	1
1	8035	13065.391126645989	0
1	8038	13066.770033100704	1
1	8040	13067.614199840812	0
1	8043	13091.505185555184	1
1	8045	13093.882871941623	0
1	8048	13094.114467274185	1
1	8050	13099.512156837763	2
1	8052	13100.111184764619	3
1	8054	13101.279673224611	4
1	8056	13101.812173775738	3
1	8059	13102.131392486049	4
1	8061	13107.69723974031	3
1	8064	13118.065764140863	2
1	8067	13126.637485799694	3
1	8069	13126.752632335628	2
1	8072	13139.394263565438	3
1	8074	13142.918536823246	2
1	8077	13143.945485368164	3
1	8079	13160.574503540234	4
1	8081	13164.127999361576	5
1	8083	13168.802034116006	6
1	8085	13173.266145034783	7
1	8087	13175.690767129034	6
1	8090	13178.421813138723	5
1	8093	13183.002288718724	6
1	8095	13185.219018548426	5
1	8098	13185.324345672401	4
1	8101	13193.235429507429	5
1	8103	13193.593428748402	6
1	8105	13195.278892223189	5
1	8108	13213.397180529692	4
1	8111	13221.957423728717	3
1	8114	13225.560225551201	2
1	8117	13226.151320830158	1
1	8120	13228.013972212546	2
1	8122	13228.129261435988	3
1	8124	13228.229182213718	2
1	8127	13229.90582567998	3
1	8129	13234.828842734783	4
1	8131	13238.412354687679	5
1	8133	13241.233548341542	6
1	8135	13242.612485538755	7
1	8137	13244.725692388974	8
1	8139	13251.854689171917	9
1	8141	13255.640434566624	8
1	8144	13256.201484129006	7
1	8147	13256.680076950516	6
1	8150	13264.344828046297	5
1	8153	13266.365176493479	6
1	8155	13268.412401833394	5
1	8158	13268.453726598716	6
1	8160	13269.98945125068	5
1	8163	13275.774825479966	4
1	8166	13276.375820112123	3
1	8169	13285.553912855444	2
1	8172	13287.16541072739	3
1	8174	13293.281339901441	2
1	8177	13293.892008754586	1
1	8180	13307.413217390808	0
1	8183	13309.575475630361	0
1	8185	13331.733089776301	0
1	8187	13339.930902924571	0
1	8189	13341.845092631746	0
1	8191	13354.339070175861	0
1	8194	13357.784156801741	0
1	8197	13359.328469181843	0
1	8199	13363.481710585909	0
1	8201	13379.090909693543	0
1	8204	13386.176714910096	0
1	8207	13386.608636292634	0
1	8209	13398.833318124311	0
1	8211	13409.086445458055	0
1	8213	13417.521452223071	0
1	8216	13417.532196399318	0
1	8219	13426.079186345462	0
1	8222	13427.84185650057	0
1	8224	13432.762235650758	0
1	8227	13434.228743457394	0
1	8230	13445.77105676312	0
1	8232	13450.42975927199	0
1	8235	13451.323589983919	0
1	8238	13451.634329114561	0
1	8240	13452.557232675131	0
1	8242	13457.95165638243	0
1	8245	13458.231185825737	0
1	8248	13458.526192168469	0
1	8250	13459.042010060328	0
1	8253	13459.156802640922	0
1	8255	13464.411902222556	0
1	8257	13470.938324592425	0
1	8260	13481.558605014743	0
1	8262	13484.188480377841	0
1	8264	13486.158194416999	0
1	8267	13486.633306977358	0
1	8270	13489.313377538471	0
1	8273	13492.234178759216	0
1	8275	13496.703626103936	0
1	8277	13497.327410298573	0
1	8280	13497.675478397582	0
1	8283	13501.85438730613	1
1	8285	13503.796626776302	2
1	8287	13504.132388778936	3
1	8289	13512.363011455872	4
1	8291	13517.091098860499	5
1	8293	13519.64951438189	4
1	8296	13519.97654830144	3
1	8299	13520.416855069736	4
1	8301	13531.361013381599	5
1	8303	13544.687280268107	4
1	8306	13546.844585630708	3
1	8309	13546.872513719632	4
1	8311	13548.234146918337	3
1	8314	13548.347087030518	2
1	8317	13549.857344186732	3
1	8319	13552.027546394901	2
1	8322	13555.189200414277	1
1	8325	13557.631738101396	0
1	8328	13564.579949015611	1
1	8330	13565.017242790845	0
1	8333	13565.149056206927	1
1	8335	13567.103232532297	2
1	8337	13570.724948730398	3
1	8339	13573.472876907027	2
1	8342	13584.915652094568	1
1	8345	13594.815062994439	0
1	8348	13595.01840840167	0
1	8350	13597.031360612586	0
1	8353	13597.492872535504	0
1	8355	13597.87488841195	0
1	8358	13605.164226826114	0
1	8360	13605.552066733969	0
1	8363	13608.606624596313	1
1	8365	13609.781068171795	0
1	8368	13617.823037396303	0
1	8370	13618.251462581767	0
1	8373	13619.711006412157	0
1	8375	13629.678021489808	0
1	8377	13630.610038172157	0
1	8380	13632.446266264696	0
1	8383	13635.649918423707	0
1	8385	13637.657723966382	0
1	8388	13641.903456174263	0
1	8390	13642.066495935467	0
1	8393	13655.593316426877	0
1	8395	13656.677914885473	0
1	8398	13657.58454447819	0
1	8400	13674.031091011594	0
1	8402	13676.962787767311	0
1	8404	13684.843315777901	0
1	8407	13685.370464701216	0
1	8410	13691.372370522821	0
1	8412	13697.188664042395	0
1	8414	13700.467945050169	0
1	8416	13704.755292402617	0
1	8418	13705.36328336537	0
1	8420	13707.421581096209	0
1	8422	13716.111528959448	0
1	8425	13718.903999544485	0
1	8427	13730.184499079579	0
1	8430	13739.856792170733	0
1	8433	13744.675426808426	0
1	8436	13748.330808695673	0
1	8439	13749.533619987793	0
1	8442	13750.142472686096	0
1	8445	13751.608518845074	0
1	8447	13759.758735195163	0
1	8450	13760.726682038211	0
1	8452	13768.64436291498	0
1	8454	13770.912164678407	0
1	8457	13780.519543372216	0
1	8459	13780.977279025616	0
1	8462	13785.7259367585	0
1	8464	13795.871969487269	0
1	8466	13800.452514731076	0
1	8469	13802.100936516533	0
1	8472	13805.018049307934	0
1	8475	13806.29054983775	0
1	8477	13806.521568595379	0
1	8479	13807.245706682406	0
1	8481	13813.217124580305	0
1	8484	13814.819721880053	0
1	8486	13818.966049241967	0
1	8489	13822.123298039201	0
1	8491	13825.090968869829	0
1	8493	13828.263385180718	0
1	8495	13831.305538481445	0
1	8498	13835.16463256336	0
1	8501	13841.366040694759	0
1	8503	13846.35159978315	0
1	8506	13847.236509529476	0
1	8509	13859.148123903316	0
1	8511	13874.607399660919	0
1	8514	13878.939443279543	0
1	8517	13881.70156523875	0
1	8520	13884.295637947073	0
1	8523	13888.341438203848	0
1	8525	13891.499361826142	0
1	8528	13894.019788162002	1
1	8530	13895.762752429581	0
1	8533	13897.35038224871	0
1	8535	13898.131165973143	0
1	8537	13900.317092440849	0
1	8539	13901.515762930859	0
1	8541	13902.758158408723	0
1	8543	13910.535210735799	0
1	8546	13917.675062093819	0
1	8549	13930.261221144788	0
1	8551	13935.594419289025	0
1	8553	13939.473191220274	0
1	8555	13942.821553261919	0
1	8558	13946.8386745158	0
1	8561	13954.304265695356	0
1	8563	13961.161921451392	0
1	8566	13970.32903617459	0
1	8569	13973.879371665692	0
1	8571	13975.486740672983	0
1	8573	13995.16004721421	0
1	8576	13997.111733813123	0
1	8579	13999.250234746086	0
1	8581	14002.366673110042	0
1	8584	14008.121303464315	0
1	8586	14008.919381801867	0
1	8589	14013.979816165403	0
1	8591	14014.220944787325	0
1	8594	14023.663168434257	0
1	8596	14030.449379276829	0
1	8598	14032.004203105497	0
1	8601	14037.014857890589	0
1	8603	14051.00787465387	0
1	8606	14063.191943309793	0
1	8609	14070.804716917462	0
1	8611	14075.963038054546	0
1	8613	14080.995213359438	0
1	8616	14084.647325373671	0
1	8619	14087.427370647247	0
1	8622	14092.889135492461	0
1	8624	14096.65731044875	0
1	8626	14100.260229093764	0
1	8628	14110.680878546735	0
1	8631	14114.818130445644	0
1	8634	14114.950041437703	0
1	8636	14117.645455263915	0
1	8639	14119.46491798736	0
1	8642	14126.042950154179	0
1	8644	14128.32911762689	0
1	8647	14140.368524954073	0
1	8649	14145.719128226127	0
1	8651	14146.138292030827	0
1	8654	14146.309989439099	0
1	8656	14150.008072937959	0
1	8659	14152.558422830863	0
1	8662	14157.315975387905	0
1	8664	14158.187521378829	0
1	8667	14160.314309099837	0
1	8669	14160.36126681126	0
1	8672	14160.431048967591	0
1	8675	14165.572067714928	0
1	8678	14168.24290475145	0
1	8680	14171.241210787497	0
1	8683	14172.013669935439	0
1	8685	14174.390194632318	0
1	8687	14180.459930906934	0
1	8690	14187.311753093801	0
1	8692	14193.46748985851	0
1	8694	14196.767487177881	0
1	8696	14199.140701710159	0
1	8699	14202.804454907649	0
1	8702	14205.971642302539	0
1	8704	14211.517959087976	0
1	8707	14212.042945610528	0
1	8710	14214.184109713092	0
1	8712	14217.236256008116	0
1	8714	14217.270952861367	0
1	8717	14220.220704024543	0
1	8720	14222.769770500092	0
1	8722	14222.822633248058	0
1	8724	14224.437489283088	0
1	8727	14227.760102488872	0
1	8730	14233.149965535202	0
1	8732	14238.256657127313	0
1	8734	14250.681692513489	0
1	8736	14255.012381355786	0
1	8738	14265.792082350687	0
1	8741	14270.964393507543	0
1	8743	14274.818146838204	0
1	8745	14279.989326377899	0
1	8748	14283.210632589318	0
1	8751	14287.501989793193	0
1	8754	14288.895682090968	0
1	8756	14297.282239765353	0
1	8759	14298.933339495976	0
1	8761	14308.824956035513	0
1	8763	14321.002307136365	0
1	8765	14323.443551067233	0
1	8768	14331.275171045071	0
1	8771	14335.081042572524	0
1	8774	14335.808526124388	0
1	8776	14345.634668515904	0
1	8778	14358.167305988951	0
1	8781	14359.33470309631	0
1	8784	14360.348237066507	0
1	8786	14362.443681946314	0
1	8788	14365.247583741306	0
1	8791	14365.973447762827	0
1	8794	14367.770589839199	0
1	8797	14368.920905698726	0
1	8799	14372.983729599005	0
1	8801	14382.024034605261	0
1	8804	14388.178128039252	0
1	8807	14392.973333543918	0
1	8810	14394.220972800604	0
1	8812	14398.193788218178	0

