version 2
run POLICY_1-15-20191213-12:40:09-1217
attr configname POLICY_1
attr datetime 20191213-12:40:09
attr experiment POLICY_1
attr inifile omnetpp.ini
attr iterationvars ""
attr iterationvarsf ""
attr measurement ""
attr network Carrefour
attr processid 1217
attr repetition 15
attr replication #15
attr resultdir results
attr runnumber 15
attr seedset 15
param **.policy 1
param **.delta 0s
param **.tillsNumber 7
param **.capacity 0.3
param **.meanInterArrivalTime 8s
param **.meanItemsInACart 12
param **.interArrivalDistribution 0
param **.itemsInCartDistribution 0

vector 0 Carrefour.decider stats_numCustomers:vector ETV
attr "" ""
attr source numCustomers
vector 1 Carrefour.decider stats_numCustomersQueue:vector ETV
attr "" ""
attr source numCustomersQueue
0	760	1201.694825366253	5
0	762	1203.451216900938	6
0	765	1203.921870865575	7
0	768	1205.177266214423	6
0	770	1208.795387932022	5
0	772	1210.079590321729	4
0	774	1211.094232676626	3
0	776	1211.374193533426	4
0	779	1212.879030405791	3
0	781	1213.50624485669	2
0	783	1215.298564362509	3
0	786	1215.410768660219	4
0	789	1218.944856895875	5
0	792	1220.039128130777	6
0	795	1226.033468030074	5
0	797	1227.988511419097	4
0	799	1254.411288784242	5
0	802	1260.491520983719	4
0	804	1261.876653647686	5
0	807	1276.022539545474	4
0	809	1282.503554400863	3
0	811	1283.971004846826	2
0	813	1284.329543141109	3
0	816	1291.329507571494	4
0	819	1298.322548990473	5
0	822	1302.99269064067	6
0	825	1314.66640942881	5
0	827	1326.116789616949	4
0	829	1326.908686322874	3
0	831	1331.878785849845	2
0	833	1342.806196545499	3
0	836	1345.491676091699	4
0	839	1361.174695342538	3
0	841	1368.917654053715	2
0	843	1376.772193234442	1
0	845	1382.264929379505	2
0	848	1383.822424274048	3
0	851	1384.439039889132	2
0	853	1384.790951735295	1
0	855	1399.845609608908	2
0	858	1400.92887752425	3
0	861	1402.340085500384	4
0	864	1404.169105372768	5
0	867	1407.846240406437	6
0	870	1416.711619410219	5
0	872	1420.269685380765	4
0	874	1422.973772838854	3
0	876	1423.566873916451	2
0	878	1424.020828562526	3
0	881	1426.951476003005	4
0	884	1429.123352889707	3
0	886	1431.071597408447	4
0	889	1434.40619138284	5
0	892	1434.657949415465	6
0	895	1437.403256746452	7
0	898	1439.373544229455	6
0	900	1440.542772020134	7
0	903	1445.16466439521	6
0	905	1447.124281924349	5
0	907	1448.668657123053	6
0	910	1456.481574679	7
0	913	1456.897430359101	8
0	915	1457.71467630256	7
0	918	1458.536765655279	8
0	920	1469.652195972336	7
0	923	1475.275591083346	6
0	925	1480.426426108775	7
0	928	1481.527035960357	6
0	930	1482.430065259864	5
0	932	1485.174785401313	6
0	935	1485.384262903037	7
0	938	1487.842580133376	6
0	940	1488.075823355257	7
0	943	1494.143951460647	8
0	945	1503.029889887606	7
0	948	1503.971596583294	8
0	950	1504.565970081724	9
0	952	1506.461051496596	8
0	955	1508.406823789	7
0	958	1509.811849951794	6
0	960	1511.881379755553	5
0	962	1512.518122883344	6
0	965	1513.248837685523	5
0	967	1520.194325062769	4
0	969	1521.92624619325	5
0	972	1527.14569075978	6
0	975	1527.802630161465	5
0	977	1528.141924266104	6
0	980	1541.609594530094	7
0	983	1543.330129665331	8
0	985	1544.33964189232	9
0	987	1546.449527296644	8
0	990	1552.740340818649	7
0	993	1558.383411161162	6
0	995	1563.81774680056	7
0	998	1567.438543537759	6
0	1000	1569.633519642111	7
0	1003	1570.286474840271	6
0	1005	1572.610293231134	7
0	1008	1575.66179032583	8
0	1010	1575.722194584028	7
0	1013	1578.695989020493	8
0	1015	1581.649659678624	7
0	1018	1587.811843197331	8
0	1020	1593.140087252717	7
0	1023	1593.96491986567	6
0	1025	1600.656975891137	5
0	1027	1600.973612249402	6
0	1030	1601.183957425032	7
0	1033	1605.404484729807	8
0	1035	1621.053158804626	7
0	1038	1621.783099201594	8
0	1040	1624.237379241802	7
0	1043	1625.097731271628	6
0	1045	1626.985512895132	5
0	1047	1627.521689740325	6
0	1050	1631.643514668918	5
0	1052	1633.86360326915	6
0	1055	1635.178887052386	7
0	1058	1636.140539263126	6
0	1060	1646.504976744034	5
0	1062	1650.092168373918	4
0	1064	1650.237818090658	3
0	1066	1654.391404553403	4
0	1069	1655.545603948019	5
0	1072	1657.701717597108	4
0	1074	1662.537638090298	5
0	1077	1662.662252056667	6
0	1080	1663.236924316957	7
0	1083	1665.771206967133	6
0	1085	1666.176537009053	5
0	1087	1667.048488463118	6
0	1090	1667.860725734813	5
0	1092	1668.434249585492	6
0	1095	1669.247406718193	7
0	1098	1670.671392398315	6
0	1100	1671.725729482006	5
0	1102	1676.454627275318	4
0	1104	1678.840078353982	5
0	1107	1683.157747922494	4
0	1109	1683.509924580551	5
0	1112	1685.4289028789	4
0	1114	1685.96273859217	5
0	1117	1686.075187823097	4
0	1119	1687.916331048492	5
0	1122	1690.751993884057	4
0	1124	1710.125654392838	5
0	1127	1720.497863821123	4
0	1129	1724.156850049693	5
0	1132	1724.20603938414	6
0	1135	1725.45393473958	5
0	1137	1733.316158676928	6
0	1140	1741.390002927636	5
0	1142	1741.849477085364	6
0	1145	1744.197086615477	5
0	1147	1744.360917668226	6
0	1150	1744.381063877559	5
0	1152	1753.196828335353	4
0	1154	1759.528441160445	5
0	1157	1774.341249716593	4
0	1159	1784.423315673438	3
0	1161	1784.684670272534	4
0	1164	1799.291128775119	3
0	1166	1812.290301151037	4
0	1169	1819.638928640906	3
0	1171	1834.484975008124	2
0	1173	1837.612951941868	1
0	1175	1845.073389895127	2
0	1178	1851.203331928167	3
0	1181	1854.019988888675	4
0	1184	1867.769796741799	3
0	1186	1874.380951249397	2
0	1188	1875.960262938265	3
0	1191	1883.690130780045	4
0	1194	1884.613568332936	3
0	1196	1885.054382261119	2
0	1198	1890.809076248259	1
0	1200	1892.590209981497	2
0	1203	1894.089441292044	3
0	1206	1897.242719003234	2
0	1208	1904.3914302777	3
0	1211	1905.248919497105	4
0	1214	1915.265526840922	3
0	1216	1916.240560845705	4
0	1219	1921.154772213534	3
0	1221	1934.90873582688	4
0	1224	1936.369221474277	3
0	1226	1936.56091831756	4
0	1229	1936.963345842249	5
0	1232	1944.697018214308	6
0	1235	1945.957480489692	7
0	1238	1947.9861585825	8
0	1240	1952.063095944548	9
0	1242	1952.697730564213	10
0	1244	1959.699461165918	9
0	1247	1959.855560060708	10
0	1249	1960.792214350897	9
0	1252	1962.947321244106	10
0	1254	1967.884423334765	9
0	1257	1971.300300387861	8
0	1260	1971.996769314725	9
0	1262	1973.985840962255	8
0	1265	1974.94973347449	9
0	1267	1980.41897634744	8
0	1270	1987.425593772248	7
0	1273	1999.935591193285	6
0	1275	2010.784056683081	7
0	1278	2011.670733620749	6
0	1280	2012.040348888001	7
0	1283	2015.446722289559	8
0	1285	2017.055651422143	7
0	1288	2022.237711033854	6
0	1290	2033.946960825918	7
0	1293	2035.666968631122	6
0	1295	2036.478587025727	5
0	1297	2036.646375607849	6
0	1300	2039.294973389333	5
0	1302	2045.151887305688	6
0	1305	2051.931209738851	5
0	1307	2054.922787399395	6
0	1310	2055.169969539032	7
0	1313	2059.650211517749	8
0	1315	2063.760470000671	7
0	1318	2064.924450970522	6
0	1320	2066.223773763056	7
0	1323	2079.946265712806	8
0	1325	2081.819623260413	9
0	1327	2086.254752667012	8
0	1330	2095.150301892163	7
0	1333	2096.566631728058	6
0	1335	2098.105749757075	7
0	1338	2099.226823829483	8
0	1340	2100.535410313389	7
0	1343	2111.35250437428	8
0	1345	2120.898227659982	9
0	1347	2122.218681495863	8
0	1350	2122.748476683059	9
0	1352	2124.445343511006	8
0	1355	2124.840214810646	9
0	1357	2135.152324711442	8
0	1360	2140.098498284398	9
0	1362	2140.916945827774	10
0	1364	2144.592110977949	11
0	1366	2149.371201287594	10
0	1369	2149.86665215998	9
0	1372	2150.832487795378	8
0	1375	2151.000864217818	7
0	1378	2152.001806529577	6
0	1380	2157.19952416468	7
0	1383	2158.716173247574	6
0	1385	2161.705256044397	5
0	1387	2170.852642211052	4
0	1389	2175.640726349525	5
0	1392	2177.320927380644	4
0	1394	2181.072948372661	3
0	1396	2183.60499079812	4
0	1399	2184.793072998525	3
0	1401	2186.389103565713	4
0	1404	2187.700446288231	3
0	1406	2192.135179929438	4
0	1409	2200.266904131999	5
0	1412	2202.542394495942	4
0	1414	2209.486399031055	3
0	1416	2214.396530425887	4
0	1419	2226.85929051948	5
0	1422	2228.563180131709	4
0	1424	2229.104892938832	5
0	1427	2231.186776119332	6
0	1430	2240.404467806681	5
0	1432	2245.674894656554	4
0	1434	2247.326300096454	5
0	1437	2248.342704888644	4
0	1439	2257.32797127887	3
0	1441	2257.583834486122	4
0	1444	2258.371792817116	5
0	1447	2260.953195708561	6
0	1450	2261.878901882872	7
0	1453	2262.292876466348	8
0	1455	2262.356473513718	9
0	1457	2262.569200500713	8
0	1460	2262.593714233687	7
0	1463	2262.608949777619	8
0	1465	2263.881272478141	9
0	1467	2267.205655277429	8
0	1470	2270.513376649609	7
0	1473	2270.532204841667	6
0	1475	2273.432963411432	7
0	1478	2276.540455063512	8
0	1480	2288.379237501689	9
0	1482	2289.315937054781	10
0	1484	2294.567061597971	9
0	1487	2300.690216029087	8
0	1490	2303.325697116444	7
0	1493	2305.030871962991	8
0	1495	2309.021300345266	7
0	1498	2312.970608545966	8
0	1500	2315.21612519461	9
0	1502	2316.761616740961	8
0	1505	2319.591303823488	9
0	1507	2319.950816988204	10
0	1509	2326.122915364443	9
0	1512	2328.103733623533	8
0	1515	2332.682982842625	7
0	1518	2344.084193576671	8
0	1520	2345.99945136787	7
0	1523	2352.187778430581	6
0	1525	2366.650775368067	5
0	1527	2368.207309505341	6
0	1530	2369.736640851584	5
0	1532	2374.571088177558	4
0	1534	2377.202814036269	3
0	1536	2381.724685979403	2
0	1538	2386.174718544096	3
0	1541	2398.191297048533	2
0	1543	2401.323895555081	3
0	1546	2406.395493279143	4
0	1549	2409.117883550163	3
0	1551	2411.301032205226	2
0	1553	2418.47921900466	3
0	1556	2420.842178740626	4
0	1559	2424.931345568551	5
0	1562	2428.422704063228	4
0	1564	2429.058369448472	5
0	1567	2431.399515052877	6
0	1570	2434.97473912752	5
0	1572	2445.719758749692	4
0	1574	2449.627681452491	5
0	1577	2455.087854896249	6
0	1580	2458.468734119255	7
0	1583	2460.028545069731	6
0	1585	2460.308583270603	5
0	1587	2462.419761033932	4
0	1589	2464.847389395988	5
0	1592	2465.717225123177	6
0	1595	2467.24839876501	7
0	1598	2469.43160562247	8
0	1600	2471.138005677889	7
0	1603	2471.572092496788	6
0	1605	2480.225465965097	5
0	1607	2483.508828006011	4
0	1609	2487.663709055188	3
0	1611	2490.217315910401	2
0	1613	2490.651922031318	3
0	1616	2498.38750745299	4
0	1619	2499.980871956941	5
0	1622	2501.649166410852	4
0	1624	2509.97266521064	5
0	1627	2512.554239116911	6
0	1630	2512.923916810784	7
0	1633	2515.408923280044	8
0	1635	2515.869744444664	9
0	1637	2523.35875763437	8
0	1640	2532.500564005357	9
0	1642	2534.463906734099	8
0	1645	2546.765469219423	7
0	1648	2547.584078659909	6
0	1650	2549.218965576301	7
0	1653	2563.864766685548	8
0	1655	2568.061238318369	7
0	1658	2576.45975872911	6
0	1660	2577.308497532535	7
0	1663	2589.763775197987	8
0	1665	2595.854330769916	7
0	1668	2599.147940466893	8
0	1670	2601.902705179051	7
0	1673	2608.66516813836	8
0	1675	2612.588527192309	7
0	1678	2613.002604852325	8
0	1680	2626.4116226334	7
0	1683	2629.128657371481	8
0	1685	2630.712669320764	9
0	1687	2634.889769386331	8
0	1690	2635.234123446248	7
0	1693	2636.886917152254	8
0	1695	2639.139439367635	9
0	1697	2639.669782532761	8
0	1700	2641.341440087806	7
0	1703	2642.044562987889	8
0	1705	2643.80921616237	7
0	1708	2644.670355104139	6
0	1710	2644.948928798329	5
0	1712	2647.567891067539	4
0	1714	2658.533969079446	3
0	1716	2668.548479071705	4
0	1719	2674.321823914943	3
0	1721	2677.262426254448	2
0	1723	2684.820226098185	3
0	1726	2685.156141960672	4
0	1729	2686.539137051866	3
0	1731	2694.140506999686	4
0	1734	2695.742230565641	3
0	1736	2713.312495911342	4
0	1739	2715.068764665885	5
0	1742	2723.067421947008	6
0	1745	2735.553041934237	7
0	1748	2738.433267107469	6
0	1750	2742.630071265614	5
0	1752	2742.902678234197	4
0	1754	2745.336484350139	5
0	1757	2747.073791348597	6
0	1760	2749.211472359131	7
0	1763	2750.967960894257	6
0	1765	2755.618767231523	7
0	1768	2755.865736049444	6
0	1770	2759.262581799483	5
0	1772	2759.922833155522	6
0	1775	2765.031590625524	5
0	1777	2766.286267255921	6
0	1780	2770.06531924044	7
0	1783	2770.125902948289	6
0	1785	2771.154496812688	5
0	1787	2771.703432236407	4
0	1789	2773.360526255457	3
0	1791	2780.047940890354	4
0	1794	2782.14070641014	3
0	1796	2786.996843304138	4
0	1799	2794.885305899887	3
0	1801	2801.931209035302	4
0	1804	2808.51564080011	3
0	1806	2810.537314551249	4
0	1809	2814.258014418132	3
0	1811	2817.221972941482	2
0	1813	2819.638421246687	1
0	1815	2825.880787363309	2
0	1818	2830.062066819029	1
0	1820	2837.58738402009	2
0	1823	2837.63830864692	1
0	1825	2839.117365883697	2
0	1828	2851.987941054535	3
0	1831	2854.734447653108	4
0	1834	2858.750963400388	3
0	1836	2858.790121140436	4
0	1839	2871.108046987885	5
0	1842	2878.781742699485	4
0	1844	2884.273151177822	5
0	1847	2886.01187019603	4
0	1849	2895.833241393004	3
0	1851	2899.74988949017	4
0	1854	2908.42313898613	5
0	1857	2911.029927939048	6
0	1860	2915.597973229572	5
0	1862	2927.692429141692	6
0	1865	2930.656165709774	7
0	1868	2933.550827825554	8
0	1870	2936.651107612703	9
0	1872	2939.58604729885	10
0	1874	2939.837079698231	9
0	1877	2940.084224598718	10
0	1879	2940.965979496445	11
0	1881	2949.177737049032	10
0	1884	2951.590817724924	9
0	1887	2951.964099274783	8
0	1890	2953.132377636798	7
0	1893	2960.8491130858	6
0	1895	2969.854489537425	7
0	1898	2971.306630135915	8
0	1900	2971.564133125181	7
0	1903	2976.121626863533	6
0	1905	2979.397688180424	5
0	1907	2979.500196278414	4
0	1909	2979.733774695632	3
0	1911	2983.070274843891	4
0	1914	2985.010628779128	3
0	1916	2986.892071875625	4
0	1919	2988.872446578554	3
0	1921	2990.183582955376	4
0	1924	2994.149093314098	3
0	1926	3001.012103726149	4
0	1929	3001.202276266452	5
0	1932	3003.166374068317	4
0	1934	3004.597380004905	5
0	1937	3007.773309960079	4
0	1939	3009.420767884258	3
0	1941	3012.364020156884	4
0	1944	3015.758928726731	5
0	1947	3024.123209948336	6
0	1950	3026.610126253781	5
0	1952	3026.981446034993	6
0	1955	3030.747740551411	7
0	1958	3031.385407281668	8
0	1960	3031.680979446742	9
0	1962	3034.439407372181	10
0	1964	3050.278081968424	11
0	1966	3053.238593773663	12
0	1968	3053.629647273246	13
0	1970	3053.666537984936	12
0	1973	3058.963102931806	11
0	1976	3073.435953970595	12
0	1978	3076.733094820515	11
0	1981	3077.917564866157	12
0	1983	3080.242643231237	11
0	1986	3084.427318811193	10
0	1989	3088.882420416308	11
0	1991	3090.758396926728	10
0	1994	3091.602029992102	9
0	1997	3092.454416805201	8
0	2000	3096.276636878728	7
0	2003	3102.081864200763	6
0	2005	3104.119713839559	5
0	2007	3111.100618872175	4
0	2009	3113.478013888878	3
0	2011	3114.833575623254	2
0	2013	3136.534179923939	3
0	2016	3138.699383997997	4
0	2019	3146.539133419931	3
0	2021	3148.133677786184	4
0	2024	3154.244375036663	3
0	2026	3155.614872437011	2
0	2028	3160.369925630715	1
0	2030	3179.91117832321	2
0	2033	3185.828927199162	3
0	2036	3185.898170186256	4
0	2039	3189.255088332708	3
0	2041	3194.159697564857	4
0	2044	3196.739657054317	5
0	2047	3197.918867351635	6
0	2050	3207.183744607513	7
0	2053	3215.58286527807	8
0	2055	3217.399958656244	7
0	2058	3220.198610559863	8
0	2060	3225.311394453836	7
0	2063	3225.559334940767	6
0	2065	3226.463671235727	7
0	2068	3227.26540031428	6
0	2070	3234.063589294327	5
0	2072	3234.192741370619	6
0	2075	3245.245868876422	5
0	2077	3250.062930321573	4
0	2079	3261.029727671576	5
0	2082	3262.531042889073	6
0	2085	3267.17729710069	7
0	2088	3268.08648961439	6
0	2090	3274.460509309226	5
0	2092	3277.245356489493	6
0	2095	3279.499484990458	7
0	2098	3282.009947062922	6
0	2100	3289.365259477981	5
0	2102	3303.602249820862	4
0	2104	3305.363329383924	3
0	2106	3305.700714551087	4
0	2109	3305.926175019147	5
0	2112	3307.529350230111	6
0	2115	3309.9981988863	5
0	2117	3311.579754617958	4
0	2119	3312.195873890722	3
0	2121	3317.987918220058	4
0	2124	3318.268501627993	3
0	2126	3319.975710006229	2
0	2128	3320.905485193191	1
0	2130	3326.646931621826	2
0	2133	3327.776459444346	3
0	2136	3332.69721317818	4
0	2139	3335.940234493916	5
0	2142	3354.642386046771	4
0	2144	3355.371529862551	5
0	2147	3355.909208128972	6
0	2150	3356.597641427346	5
0	2152	3363.60357643318	4
0	2154	3369.877468749469	5
0	2157	3372.566537897749	4
0	2159	3373.569135995874	3
0	2161	3373.640190673785	4
0	2164	3389.958202681952	5
0	2167	3390.772036057169	6
0	2170	3395.87610971485	5
0	2172	3398.229329900654	6
0	2175	3403.010105017993	7
0	2178	3404.693731167643	6
0	2180	3407.40504374517	7
0	2183	3414.301481553579	8
0	2185	3419.786008787072	7
0	2188	3423.569302909755	6
0	2190	3425.785597369556	7
0	2193	3433.733156043927	6
0	2195	3440.586131966173	7
0	2198	3443.096268130694	6
0	2200	3446.962993368765	7
0	2203	3450.603306924903	8
0	2205	3452.083600791729	9
0	2207	3454.817738696855	10
0	2209	3455.003177508244	9
0	2212	3462.589898166255	8
0	2215	3463.45589722165	9
0	2217	3467.274068948382	10
0	2219	3468.359189337352	9
0	2222	3468.528631370288	10
0	2224	3470.762346635048	9
0	2227	3471.698314046322	8
0	2230	3477.768751199328	9
0	2232	3485.302868955213	8
0	2235	3486.618677946908	7
0	2238	3487.097476361045	8
0	2240	3492.730489243626	9
0	2242	3493.4296739296	10
0	2244	3505.670507771361	9
0	2247	3508.675814268956	10
0	2249	3510.852391551045	9
0	2252	3511.257828573665	8
0	2255	3513.174592648692	9
0	2257	3516.496345876201	8
0	2260	3518.9728110574	7
0	2263	3519.785694554229	6
0	2265	3523.1513397511	5
0	2267	3523.160970540254	4
0	2269	3524.628198451382	5
0	2272	3528.557174186036	4
0	2274	3532.002580799998	3
0	2276	3532.427942670338	2
0	2278	3550.659311692791	3
0	2281	3552.493213655082	4
0	2284	3555.515441801911	3
0	2286	3557.505129348221	2
0	2288	3557.777698386611	3
0	2291	3558.403805861973	4
0	2294	3565.462263963021	3
0	2296	3571.827886136265	4
0	2299	3576.537743674785	3
0	2301	3597.677563507682	2
0	2303	3598.394825765164	1
0	2305	3602.68732939861	2
0	2308	3605.133437120773	3
0	2311	3614.819293706706	4
0	2314	3620.902163810802	5
0	2317	3621.859069244698	6
0	2320	3624.474988259099	7
0	2323	3630.970506799898	6
0	2325	3642.976318476938	5
0	2327	3650.0700948621	4
0	2329	3650.419174869056	3
0	2331	3657.783511764856	4
0	2334	3659.239183578372	3
0	2336	3662.115662268148	2
0	2338	3663.132962080747	3
0	2341	3668.736633599658	4
0	2344	3673.612155283529	5
0	2347	3674.044225325503	6
0	2350	3681.749226664056	7
0	2353	3686.927988759124	6
0	2355	3688.741043680808	7
0	2358	3688.90409645984	8
0	2360	3689.330213407685	7
0	2363	3692.832147845455	6
0	2365	3693.190399393629	7
0	2368	3693.240575195806	8
0	2370	3697.230343897052	9
0	2372	3697.760265176757	8
0	2375	3698.451751370733	9
0	2377	3698.591140485224	10
0	2379	3705.438342004894	9
0	2382	3717.727253945766	8
0	2385	3722.200534342465	9
0	2387	3727.423040627996	8
0	2390	3735.734626663069	9
0	2392	3750.175138471425	10
0	2394	3750.516656956462	9
0	2397	3750.842386732239	8
0	2400	3751.576271226824	7
0	2403	3754.360156665221	6
0	2405	3766.215347039485	5
0	2407	3772.309025247412	6
0	2410	3772.504901050975	5
0	2412	3789.368213761114	6
0	2415	3797.833852304753	5
0	2417	3799.641145191329	6
0	2420	3805.553571209531	7
0	2423	3806.597931503241	8
0	2425	3814.504535850666	9
0	2427	3819.45930842691	10
0	2429	3820.815315088031	9
0	2432	3821.869892112863	10
0	2434	3823.547472654712	9
0	2437	3827.442236097466	8
0	2440	3830.199084464795	7
0	2443	3830.245618654572	8
0	2445	3830.301682322775	7
0	2448	3843.039951308257	6
0	2450	3848.276066739003	5
0	2452	3853.925646090533	4
0	2454	3856.331224023633	5
0	2457	3861.217659879614	6
0	2460	3864.248295496572	5
0	2462	3872.346199558957	6
0	2465	3872.717012485337	5
0	2467	3873.346147977052	4
0	2469	3880.175166643557	5
0	2472	3882.876131404932	4
0	2474	3882.933835290083	3
0	2476	3887.701537521457	4
0	2479	3890.06503228693	3
0	2481	3890.519284125868	2
0	2483	3893.533006145236	3
0	2486	3897.54596413292	2
0	2488	3903.67126159999	3
0	2491	3905.38991390306	4
0	2494	3905.466196049646	3
0	2496	3919.811865895825	2
0	2498	3921.460829236293	3
0	2501	3928.484041951772	2
0	2503	3929.88321303044	3
0	2506	3945.39585050971	4
0	2509	3949.593959753646	3
0	2511	3950.031338706882	4
0	2514	3952.688648013076	5
0	2517	3956.387147874791	6
0	2520	3956.666576400966	5
0	2522	3956.935587866429	4
0	2524	3957.384331688751	3
0	2526	3967.477399417414	4
0	2529	3968.5358929769	5
0	2532	3972.438680045349	6
0	2535	3974.232180516366	7
0	2538	3974.341028101215	6
0	2540	3978.228356255968	7
0	2543	3983.505556232141	6
0	2545	3987.158596729302	5
0	2547	3987.169090038418	4
0	2549	3999.321388352194	5
0	2552	4000.268811621758	6
0	2555	4000.984538197369	5
0	2557	4003.822976358072	6
0	2560	4004.249722823383	7
0	2563	4005.686839054194	6
0	2565	4008.222882488223	7
0	2568	4009.906923787666	6
0	2570	4012.253759085386	7
0	2573	4013.966546362132	6
0	2575	4019.765178501918	7
0	2578	4025.819318256301	8
0	2580	4030.434559242475	7
0	2583	4032.930028971155	6
0	2585	4036.035041722033	7
0	2588	4036.377109789349	8
0	2590	4039.120782553753	7
0	2593	4044.408929611901	6
0	2595	4045.15230216009	5
0	2597	4045.957181810319	6
0	2600	4047.852426256845	5
0	2602	4049.902933155366	6
0	2605	4050.92780526446	7
0	2608	4051.891825125205	6
0	2610	4055.205368495357	5
0	2612	4055.659033952772	6
0	2615	4062.994491561594	5
0	2617	4063.907296483563	6
0	2620	4068.90951666811	5
0	2622	4072.871808345174	4
0	2624	4076.787166774681	5
0	2627	4089.431974990037	4
0	2629	4090.71873772636	5
0	2632	4096.190695429551	4
0	2634	4106.270189462464	5
0	2637	4108.851072415624	4
0	2639	4115.919932297316	3
0	2641	4116.944277030793	4
0	2644	4118.010694766807	3
0	2646	4118.751541884172	4
0	2649	4120.209207348063	5
0	2652	4121.663610389296	4
0	2654	4122.394064782	5
0	2657	4123.654956133439	4
0	2659	4124.863658193376	5
0	2662	4127.1611867781	6
0	2665	4145.264111343757	5
0	2667	4152.85221584471	4
0	2669	4159.820801590076	5
0	2672	4160.610128650817	4
0	2674	4169.022432133756	3
0	2676	4174.127671848957	4
0	2679	4177.352439709577	5
0	2682	4181.27129052688	4
0	2684	4182.542174465651	5
0	2687	4184.178621261021	4
0	2689	4186.094972507275	3
0	2691	4188.798212538811	4
0	2694	4193.003725118878	3
0	2696	4194.426821364467	4
0	2699	4195.170220301732	5
0	2702	4198.452286697268	6
0	2705	4204.043072798606	5
0	2707	4204.774257768202	4
0	2709	4207.459742880011	5
0	2712	4210.191769997842	4
0	2714	4211.988893546244	5
0	2717	4218.574045288173	4
0	2719	4221.651541740422	3
0	2721	4230.236329606385	4
0	2724	4235.718187741425	5
0	2727	4236.045624002935	6
0	2730	4239.065246753572	5
0	2732	4240.569081449604	4
0	2734	4251.284177849689	3
0	2736	4254.413021067928	2
0	2738	4266.634215353794	1
0	2740	4283.498080045502	2
0	2743	4284.687527261401	3
0	2746	4288.215850832285	4
0	2749	4297.370924207268	5
0	2752	4297.517050035211	4
0	2754	4299.373376373102	5
0	2757	4301.89110209467	4
0	2759	4306.811849789914	5
0	2762	4313.724868474118	6
0	2765	4314.0739200225	7
0	2768	4318.891277577838	6
0	2770	4323.244681009109	5
0	2772	4323.285107085775	6
0	2775	4328.132649800232	7
0	2778	4334.94755794026	6
0	2780	4336.69482764972	5
0	2782	4337.507524902741	4
0	2784	4338.918577199446	3
0	2786	4350.194388969218	4
0	2789	4360.381082966359	3
0	2791	4375.875652582098	2
0	2793	4385.201670580257	3
0	2796	4401.030745938211	4
0	2799	4401.403132501879	5
0	2802	4413.711253669485	6
0	2805	4419.025056968124	5
0	2807	4421.579326566743	4
0	2809	4427.409373882935	5
0	2812	4429.917978867676	4
0	2814	4439.060608041746	3
0	2816	4441.564529344748	2
0	2818	4441.64743255001	3
0	2821	4443.943521992363	4
0	2824	4447.895128738925	3
0	2826	4451.265609964938	2
0	2828	4462.05619743227	3
0	2831	4472.936204015893	4
0	2834	4480.656610948039	3
0	2836	4482.775375532142	2
0	2838	4484.181466930065	3
0	2841	4493.619017481722	4
0	2844	4501.162978736008	5
0	2847	4502.680722443009	4
0	2849	4504.433880281146	5
0	2852	4509.202763449322	4
0	2854	4509.412354530464	5
0	2857	4511.085647395426	6
0	2860	4514.608337404249	7
0	2863	4515.338076975249	6
0	2865	4516.370485525518	5
0	2867	4518.770343149509	4
0	2869	4521.340860680662	3
0	2871	4529.154480054861	4
0	2874	4541.133834785201	3
0	2876	4544.243322714007	2
0	2878	4544.750837859365	3
0	2881	4553.065565299134	4
0	2884	4556.037049870834	3
0	2886	4558.482291617655	4
0	2889	4559.934746110161	5
0	2892	4561.772252039788	4
0	2894	4562.916730405262	5
0	2897	4565.977713043544	4
0	2899	4581.843194977431	5
0	2902	4582.915164698784	6
0	2905	4584.703067332825	5
0	2907	4593.025014449889	6
0	2910	4596.065199711243	5
0	2912	4598.922631525822	4
0	2914	4599.428781239676	5
0	2917	4600.766354491608	4
0	2919	4605.056583045666	5
0	2922	4610.250841873097	6
0	2925	4611.150425654919	7
0	2928	4612.779414321793	6
0	2930	4615.17169528816	5
0	2932	4621.144027028981	6
0	2935	4621.299570337196	7
0	2938	4621.443596167974	8
0	2940	4625.921256446528	7
0	2943	4626.698536237293	8
0	2945	4627.083276882191	7
0	2948	4629.964930027787	8
0	2950	4633.005842447659	9
0	2952	4634.291684989653	8
0	2955	4641.43018428466	7
0	2958	4642.209177061919	8
0	2960	4643.799850824938	9
0	2962	4647.964547345892	10
0	2964	4652.743806521343	9
0	2967	4653.503474664297	10
0	2969	4659.668148301225	9
0	2972	4660.400441382822	10
0	2974	4660.535924602022	9
0	2977	4662.905344046058	10
0	2979	4670.23795581941	9
0	2982	4673.769660675104	8
0	2985	4674.015615630109	7
0	2988	4674.018051796797	6
0	2990	4682.286585795176	7
0	2993	4683.411689545018	8
0	2995	4684.485624787962	9
0	2997	4686.295453983626	10
0	2999	4688.6287839987	9
0	3002	4693.044793141497	8
0	3005	4693.834026733389	7
0	3008	4696.533223432093	6
0	3010	4703.169644676171	7
0	3013	4709.428505760486	8
0	3015	4710.024486467023	7
0	3018	4712.484454895633	6
0	3020	4712.866423205011	5
0	3022	4717.010852208765	6
0	3025	4717.628706213051	5
0	3027	4718.500228514549	6
0	3030	4719.03136839425	5
0	3032	4721.958021108966	4
0	3034	4722.261349058525	5
0	3037	4724.674627618215	6
0	3040	4727.027102438671	7
0	3043	4727.104306757304	6
0	3045	4737.129886519726	7
0	3048	4744.404532546168	8
0	3050	4744.78651919365	7
0	3053	4745.801234845241	8
0	3055	4751.855743754243	9
0	3057	4755.965207413742	8
0	3060	4756.287932399772	7
0	3063	4760.748022614244	8
0	3065	4769.109004330368	9
0	3067	4769.643936925237	8
0	3070	4770.646937623149	7
0	3073	4771.744869689155	6
0	3075	4776.335175554079	7
0	3078	4777.664564707354	6
0	3080	4784.926799576902	7
0	3083	4784.955976411463	8
0	3085	4785.836998287948	7
0	3088	4786.099508446327	6
0	3090	4794.306230736851	5
0	3092	4794.83057531352	6
0	3095	4796.653748111894	7
0	3098	4797.09209061679	8
0	3100	4803.522860407171	9
0	3102	4805.61464795166	8
0	3105	4805.652764941344	7
0	3108	4806.867593087361	8
0	3110	4809.37259247907	7
0	3113	4810.261372272856	6
0	3115	4819.757841205853	5
0	3117	4828.646036331449	6
0	3120	4846.441420699001	7
0	3123	4846.518921508872	6
0	3125	4855.877115491709	7
0	3128	4856.265487563065	6
0	3130	4856.307279222952	5
0	3132	4866.956695542165	4
0	3134	4898.750147630952	5
0	3137	4900.667480813566	4
0	3139	4903.947627591215	5
0	3142	4907.537256950872	4
0	3144	4918.154822930941	3
0	3146	4923.231895130822	2
0	3148	4932.155628643224	1
0	3150	4943.985030286365	2
0	3153	4955.989230961619	3
0	3156	4960.031856788698	4
0	3159	4974.706579790247	3
0	3161	4987.768182525201	4
0	3164	4988.347062133647	5
0	3167	4988.565930220806	4
0	3169	4988.789526660431	5
0	3172	4989.909731092366	4
0	3174	4992.591425935182	5
0	3177	4998.586165007748	6
0	3180	5000.664208774074	5
0	3182	5012.08765944072	6
0	3185	5013.335112895083	7
0	3188	5022.983165523589	6
0	3190	5026.414742385653	7
0	3193	5028.728607337908	6
0	3195	5035.082669450074	7
0	3198	5035.950327045883	8
0	3200	5036.219639498738	9
0	3202	5036.618220249084	8
0	3205	5041.370919966213	7
0	3208	5044.005818471786	6
0	3210	5046.032069468423	5
0	3212	5050.100004576285	4
0	3214	5050.757739695284	3
0	3216	5052.524744197558	4
0	3219	5056.362347799809	5
0	3222	5059.36869514605	4
0	3224	5062.761735142592	5
0	3227	5066.89163122829	4
0	3229	5067.195562894595	3
0	3231	5069.550152019764	4
0	3234	5071.00444689403	5
0	3237	5071.46370095333	4
0	3239	5076.004500259198	5
0	3242	5076.722535826846	4
0	3244	5079.650611769695	5
0	3247	5085.672687638231	4
0	3249	5090.171138032188	3
0	3251	5093.941188926422	4
0	3254	5101.403255941343	5
0	3257	5104.21981172371	6
0	3260	5106.630416842331	7
0	3263	5110.096267146023	8
0	3265	5111.796432631915	9
0	3267	5115.688878290236	8
0	3270	5121.725154224315	7
0	3273	5129.178219634639	6
0	3275	5137.943088723771	5
0	3277	5141.709686219067	4
0	3279	5149.53253756386	3
0	3281	5165.137236587682	2
0	3283	5166.608494571672	3
0	3286	5176.014384915771	2
0	3288	5176.174494488276	3
0	3291	5176.927791079995	2
0	3293	5184.484454979815	3
0	3296	5186.065861211417	2
0	3298	5190.778405291231	3
0	3301	5203.282242400349	4
0	3304	5209.844492187737	3
0	3306	5215.755351642082	2
0	3308	5221.944032673688	3
0	3311	5225.965245644698	4
0	3314	5240.942205615974	5
0	3317	5243.539355686774	6
0	3320	5264.567971313517	5
0	3322	5264.903957982655	4
0	3324	5270.792158281565	5
0	3327	5273.22307658896	4
0	3329	5273.311056026917	3
0	3331	5283.823214326456	4
0	3334	5285.133470387747	5
0	3337	5286.986664687255	4
0	3339	5287.294106814586	3
0	3341	5294.983330818801	4
0	3344	5299.081987812877	3
0	3346	5301.832731227523	4
0	3349	5302.175858328952	5
0	3352	5312.347722869105	4
0	3354	5320.659097393499	3
0	3356	5324.487722890293	2
0	3358	5324.762029813393	1
0	3360	5325.008030631285	2
0	3363	5325.54951778403	3
0	3366	5326.849329102979	4
0	3369	5326.912474505176	5
0	3372	5327.453176325464	6
0	3375	5329.845825318246	5
0	3377	5333.557979839294	4
0	3379	5342.603342930646	3
0	3381	5351.830226341247	4
0	3384	5353.251412511803	5
0	3387	5353.973715037043	6
0	3390	5356.368611596999	7
0	3393	5358.29175929635	8
0	3395	5361.554507119504	7
0	3398	5362.323719762818	6
0	3400	5362.433281388862	5
0	3402	5374.597814792339	4
0	3404	5375.502870846008	5
0	3407	5375.926875747815	6
0	3410	5377.49011373539	5
0	3412	5380.333050724242	4
0	3414	5381.766843969455	3
0	3416	5395.100860695472	2
0	3418	5400.299346326436	3
0	3421	5406.895125223746	2
0	3423	5406.917446116252	3
0	3426	5413.745759153609	4
0	3429	5417.352444379285	3
0	3431	5418.221436869907	2
0	3433	5419.391021562888	1
0	3435	5419.436079658312	2
0	3438	5424.762683978899	1
0	3440	5435.608558135105	2
0	3443	5439.69859697104	1
0	3445	5465.469670985546	2
0	3448	5469.487830679352	3
0	3451	5471.083117432381	2
0	3453	5476.587661446634	1
0	3455	5479.459301386003	2
0	3458	5487.130720792429	3
0	3461	5491.457082324906	2
0	3463	5496.071958728229	1
0	3465	5504.142812485522	2
0	3468	5516.361251615706	3
0	3471	5516.444200879832	4
0	3474	5517.821225090793	5
0	3477	5518.143981267555	4
0	3479	5523.179462269178	3
0	3481	5524.448926804671	2
0	3483	5527.938341160258	3
0	3486	5528.778493205607	2
0	3488	5535.585246194966	1
0	3490	5537.481444435557	2
0	3493	5538.48762676525	3
0	3496	5542.915733979079	4
0	3499	5554.679659751841	3
0	3501	5562.410196412614	4
0	3504	5573.155518747123	3
0	3506	5575.938668383525	4
0	3509	5582.734047157962	5
0	3512	5583.038196291689	4
0	3514	5586.279097098792	5
0	3517	5589.705058916984	6
0	3520	5592.102229579116	7
0	3523	5602.182121875598	8
0	3525	5603.798570774934	7
0	3528	5608.536881708943	8
0	3530	5608.78235174318	7
0	3533	5610.152913331452	6
0	3535	5617.722879699561	7
0	3538	5619.397637872937	8
0	3540	5626.203717830938	9
0	3542	5630.265758295366	10
0	3544	5643.69135177787	11
0	3546	5644.096853469436	10
0	3549	5646.532844509777	9
0	3552	5651.529581343919	10
0	3554	5660.431037025549	9
0	3557	5663.531190139302	10
0	3559	5669.328536709346	11
0	3561	5673.349256549694	10
0	3564	5674.488109673806	9
0	3567	5688.613816045284	8
0	3570	5694.456353933043	7
0	3573	5697.653567174631	8
0	3575	5709.530315078945	7
0	3578	5712.297106410161	8
0	3580	5715.087245648633	7
0	3583	5715.588778509361	6
0	3585	5716.207337048429	5
0	3587	5724.813004103506	6
0	3590	5728.873820872053	5
0	3592	5729.088300076423	6
0	3595	5729.777869265154	7
0	3598	5732.311809474111	6
0	3600	5738.334039968465	5
0	3602	5739.041300346971	6
0	3605	5740.798956697658	5
0	3607	5741.540201050535	4
0	3609	5747.777261529885	5
0	3612	5751.386069605948	4
0	3614	5752.467085342805	3
0	3616	5754.573658461772	2
0	3618	5761.661982410248	1
0	3620	5766.73616997228	2
0	3623	5769.315126628723	3
0	3626	5774.769567746923	4
0	3629	5783.395033033885	5
0	3632	5795.713983825881	6
0	3635	5799.094070455085	7
0	3638	5801.915595622612	8
0	3640	5803.771183721286	9
0	3642	5806.101716559143	8
0	3645	5808.440771579129	7
0	3648	5814.761744755075	6
0	3650	5816.492568845902	5
0	3652	5823.215849008441	6
0	3655	5825.52636804226	7
0	3658	5827.321712341555	6
0	3660	5829.231504493573	5
0	3662	5831.003639302691	4
0	3664	5836.119204851566	5
0	3667	5838.165850086123	6
0	3670	5839.889670535019	7
0	3673	5854.42164685742	6
0	3675	5855.317560301194	5
0	3677	5857.026860584536	4
0	3679	5857.30296617699	3
0	3681	5865.803180669058	2
0	3683	5873.304685362959	1
0	3685	5882.93107557686	2
0	3688	5884.19964106956	3
0	3691	5885.792841984401	2
0	3693	5892.841012514756	1
0	3695	5893.213121603236	2
0	3698	5897.156877655262	3
0	3701	5911.879686068476	2
0	3703	5919.873607010035	3
0	3706	5925.349309948806	2
0	3708	5927.117007289107	1
0	3710	5931.400107933017	2
0	3713	5932.605898215335	3
0	3716	5937.329699335104	2
0	3718	5943.575892460571	3
0	3721	5949.1230531117	4
0	3724	5958.750789636462	5
0	3727	5959.747740362285	6
0	3730	5966.044724138722	5
0	3732	5971.621889676651	6
0	3735	5973.465038302131	5
0	3737	5974.39277394849	6
0	3740	5978.232373702147	7
0	3743	5983.481240222772	6
0	3745	5983.909298550102	5
0	3747	5987.848104583736	4
0	3749	5991.888925898713	5
0	3752	5992.142774098493	6
0	3755	5994.981926314018	5
0	3757	6002.965045673553	4
0	3759	6006.320515710458	5
0	3762	6014.48834001273	6
0	3765	6020.921805488135	5
0	3767	6021.896772518557	4
0	3769	6023.634180632643	3
0	3771	6025.459416507304	4
0	3774	6029.598057493818	5
0	3777	6032.738937898047	6
0	3780	6033.980113766181	7
0	3783	6034.40989581319	8
0	3785	6037.042736207228	9
0	3787	6042.720979605798	8
0	3790	6047.112040904316	9
0	3792	6049.844452308172	10
0	3794	6052.953803250324	9
0	3797	6053.05418505731	8
0	3800	6055.634976106623	9
0	3802	6056.204861095448	8
0	3805	6059.719783959675	9
0	3807	6065.952104700278	8
0	3810	6070.586039532657	7
0	3813	6074.432090445811	6
0	3815	6082.832429249191	5
0	3817	6093.89202024296	6
0	3820	6095.7323187088	5
0	3822	6096.464816371128	6
0	3825	6097.52960995108	7
0	3828	6101.017956917614	8
0	3830	6101.839454608339	7
0	3833	6108.350629832757	8
0	3835	6112.83964015922	7
0	3838	6116.977859227862	6
0	3840	6118.131184805599	5
0	3842	6118.854050225941	4
0	3844	6120.143511519324	3
0	3846	6128.464317823673	2
0	3848	6128.849326246941	3
0	3851	6133.61353188395	4
0	3854	6133.633815209598	3
0	3856	6134.701072778147	4
0	3859	6139.988642068892	3
0	3861	6144.661336495331	4
0	3864	6152.316038500572	3
0	3866	6156.128935587033	4
0	3869	6156.61614476422	5
0	3872	6164.595466816078	6
0	3875	6164.676127953038	5
0	3877	6170.258541427878	4
0	3879	6177.500575047434	3
0	3881	6179.542340478073	4
0	3884	6190.559788571695	5
0	3887	6192.184624177155	4
0	3889	6192.454874568598	3
0	3891	6211.486738705993	2
0	3893	6222.843944679633	3
0	3896	6224.027687323898	4
0	3899	6226.451421288922	5
0	3902	6226.926918684075	6
0	3905	6232.832286848914	7
0	3908	6234.382545567131	8
0	3910	6239.296737607073	7
0	3913	6239.403628120688	6
0	3915	6245.067344902881	7
0	3918	6245.349022508167	6
0	3920	6248.394738788659	7
0	3923	6250.995141721688	6
0	3925	6255.721725494001	7
0	3928	6256.218506291378	8
0	3930	6263.485535226712	7
0	3933	6266.533520823582	6
0	3935	6269.972547328649	5
0	3937	6273.270439788534	4
0	3939	6276.673495448439	5
0	3942	6295.633324645718	4
0	3944	6298.154688655382	5
0	3947	6298.183968212017	4
0	3949	6298.855253114512	5
0	3952	6302.308482430754	6
0	3955	6304.480152514386	5
0	3957	6305.434447960412	4
0	3959	6306.358552713038	3
0	3961	6313.859985185672	2
0	3963	6323.042131759484	3
0	3966	6332.085817520856	2
0	3968	6333.925960747341	3
0	3971	6339.423685037103	4
0	3974	6343.324907565625	5
0	3977	6357.054553008612	4
0	3979	6364.511925356938	5
0	3982	6367.04584199212	4
0	3984	6369.291623674912	5
0	3987	6369.528819403125	6
0	3990	6373.260671957967	5
0	3992	6373.391948922555	4
0	3994	6379.743546769924	5
0	3997	6380.147241205636	6
0	4000	6389.534890327207	7
0	4003	6392.887451476465	8
0	4005	6397.842972023204	9
0	4007	6398.656962285325	8
0	4010	6402.487753524615	7
0	4013	6404.474776621765	6
0	4015	6411.829954762985	5
0	4017	6413.05897542384	4
0	4019	6426.524824001778	3
0	4021	6431.018913985956	2
0	4023	6434.907201907592	1
0	4025	6436.322885138501	2
0	4028	6439.497092334499	3
0	4031	6439.973900521512	4
0	4034	6440.089098887652	5
0	4037	6441.655188237913	4
0	4039	6445.251124700678	5
0	4042	6445.739194489362	6
0	4045	6448.414044301752	7
0	4048	6448.471280640963	6
0	4050	6448.956154586773	7
0	4053	6452.067649680417	8
0	4055	6458.896629353998	9
0	4057	6459.412455704279	8
0	4060	6459.863853714974	9
0	4062	6459.923047794753	8
0	4065	6463.335974576521	7
0	4068	6464.696914885309	8
0	4070	6470.444140784822	7
0	4073	6472.367558573087	6
0	4075	6474.023063011926	7
0	4078	6475.001239014662	6
0	4080	6479.263372452222	7
0	4083	6481.116351461752	6
0	4085	6484.041980696514	5
0	4087	6484.615114676801	4
0	4089	6503.149027005066	3
0	4091	6507.984164203437	4
0	4094	6509.773452064996	5
0	4097	6517.465357317224	4
0	4099	6517.89506757146	3
0	4101	6520.149175458604	4
0	4104	6520.733654653126	3
0	4106	6523.585447683319	4
0	4109	6526.003853627268	3
0	4111	6528.608091615344	4
0	4114	6540.485690856224	3
0	4116	6553.995950448899	4
0	4119	6563.362293428881	3
0	4121	6571.863651489441	2
0	4123	6572.776854888427	3
0	4126	6574.129884657366	4
0	4129	6574.677704773574	3
0	4131	6574.888061144116	4
0	4134	6576.137945454369	3
0	4136	6577.743031201193	4
0	4139	6578.477119238546	3
0	4141	6580.772234439352	4
0	4144	6583.304660411715	5
0	4147	6585.43648089536	6
0	4150	6586.199845572933	5
0	4152	6587.918725709322	4
0	4154	6596.630565506391	3
0	4156	6597.212241732785	4
0	4159	6602.845552262025	5
0	4162	6605.039318780018	6
0	4165	6610.527844706855	7
0	4168	6615.943103253969	6
0	4170	6619.92990820907	7
0	4173	6620.774942395817	6
0	4175	6621.268273319484	5
0	4177	6624.111994981595	4
0	4179	6629.671511659609	5
0	4182	6637.176003307404	4
0	4184	6640.529681982369	5
0	4187	6644.826103943191	6
0	4190	6652.309324968137	5
0	4192	6654.234049700184	6
0	4195	6662.521870107754	7
0	4198	6663.281947983869	6
0	4200	6667.226761226905	7
0	4203	6672.408960271442	8
0	4205	6672.451500381453	9
0	4207	6685.942335027212	8
0	4210	6691.525420295479	7
0	4213	6705.042651031319	6
0	4215	6708.823121132693	7
0	4218	6710.026718302858	6
0	4220	6710.985205726049	7
0	4223	6717.516764314806	6
0	4225	6720.234960366453	7
0	4228	6723.393793543387	6
0	4230	6723.826842579429	7
0	4233	6725.493352360243	6
0	4235	6727.314388998426	5
0	4237	6744.741694365503	4
0	4239	6745.233771371958	3
0	4241	6749.704123763214	4
0	4244	6752.751080447019	5
0	4247	6754.510640123134	6
0	4250	6757.922655173633	5
0	4252	6758.168203897826	4
0	4254	6758.42201469965	3
0	4256	6762.70163305967	4
0	4259	6782.486240650568	5
0	4262	6782.743011877858	4
0	4264	6785.806902288106	3
0	4266	6791.874003658932	2
0	4268	6800.452117823558	3
0	4271	6801.5082314908	4
0	4274	6812.048199583164	5
0	4277	6813.452649953997	6
0	4280	6817.622908038845	7
0	4283	6823.013181659899	8
0	4285	6823.867971850449	9
0	4287	6826.218239838856	10
0	4289	6826.705452098252	9
0	4292	6831.789366623912	8
0	4295	6847.825562600756	7
0	4298	6851.943119163407	8
0	4300	6854.316116015132	7
0	4303	6856.985331065415	6
0	4305	6857.90603769903	7
0	4308	6861.239471747018	6
0	4310	6864.948894359863	7
0	4313	6866.98646756932	8
0	4315	6869.962865151522	7
0	4318	6873.692909988885	6
0	4320	6873.745690268079	5
0	4322	6874.30177900034	6
0	4325	6880.768618632726	5
0	4327	6884.600819683918	6
0	4330	6887.532753582255	5
0	4332	6888.789997632856	4
0	4334	6890.219196545813	3
0	4336	6894.517970517276	4
0	4339	6899.23698484702	3
0	4341	6902.83705261509	2
0	4343	6905.53130149074	3
0	4346	6906.832480766245	2
0	4348	6909.968126500964	3
0	4351	6910.392120001588	4
0	4354	6919.529921015518	5
0	4357	6920.079775813433	4
0	4359	6925.369008172387	5
0	4362	6935.446945861484	4
0	4364	6947.639089823625	5
0	4367	6956.481315506599	6
0	4370	6958.325264640302	5
0	4372	6962.540624336713	4
0	4374	6970.410667310613	5
0	4377	6975.470777833063	6
0	4380	6975.489015024438	7
0	4383	6984.534565094491	6
0	4385	6986.721153267991	5
0	4387	6987.376303929425	4
0	4389	6990.651317926669	5
0	4392	6998.390446782585	6
0	4395	7007.356010716877	7
0	4398	7009.663318058143	6
0	4400	7017.340713389528	5
0	4402	7020.734729577644	4
0	4404	7024.393230475089	3
0	4406	7028.010543222609	4
0	4409	7032.020483648329	3
0	4411	7032.611400924766	4
0	4414	7033.84925219761	5
0	4417	7041.491178743505	4
0	4419	7042.457506946309	3
0	4421	7048.635926963999	2
0	4423	7049.937618727901	1
0	4425	7051.066117026149	2
0	4428	7067.061211368503	3
0	4431	7076.304672152245	2
0	4433	7078.358369680624	3
0	4436	7081.127763804864	2
0	4438	7093.646369555759	3
0	4441	7099.866542423675	4
0	4444	7100.755774432669	5
0	4447	7110.039753081665	4
0	4449	7115.289266362665	5
0	4452	7116.174214799962	4
0	4454	7118.385467910616	3
0	4456	7121.682924390537	4
0	4459	7121.781790452443	5
0	4462	7122.009576915368	4
0	4464	7123.400634492799	5
0	4467	7124.781481175961	6
0	4470	7129.417942714531	7
0	4473	7135.065171347208	6
0	4475	7138.137754626767	7
0	4478	7139.612574321235	6
0	4480	7142.8564776219	7
0	4483	7143.260812753183	8
0	4485	7146.102986425937	9
0	4487	7147.337405956452	10
0	4489	7150.793620558126	9
0	4492	7153.396711092208	10
0	4494	7154.747866118859	9
0	4497	7154.785778107867	10
0	4499	7156.199238806508	11
0	4501	7158.232456257826	10
0	4504	7161.684727601583	9
0	4507	7162.143948120256	8
0	4510	7170.259448278013	7
0	4513	7170.772682838258	6
0	4515	7172.408802444805	5
0	4517	7174.84060470159	6
0	4520	7175.99160526495	7
0	4523	7178.370576884663	8
0	4525	7188.694719356617	7
0	4528	7192.425349634611	6
0	4530	7196.379956320472	5
0	4532	7196.880906753223	6
0	4535	7199.066769943108	5
0	4537	7209.341250001651	4
0	4539	7221.788694385441	3
0	4541	7221.799076709284	2
0	4543	7222.710880422196	3
0	4546	7224.164341827108	2
0	4548	7225.830040529288	3
0	4551	7234.105851904986	2
0	4553	7238.388649958119	1
0	4555	7248.063482948439	2
0	4558	7251.595966806034	1
0	4560	7267.335183012097	2
0	4563	7268.891246158558	3
0	4566	7273.231280698027	4
0	4569	7275.379568484056	3
0	4571	7276.092786404262	4
0	4574	7281.722625474599	5
0	4577	7282.405448438428	6
0	4580	7283.210462840939	7
0	4583	7287.411783354287	8
0	4585	7287.815330651062	9
0	4587	7293.041631692328	10
0	4589	7293.285721187674	9
0	4592	7295.421669897396	8
0	4595	7300.088102694071	9
0	4597	7304.146426986587	10
0	4599	7308.823027863492	11
0	4601	7310.387752909437	10
0	4604	7311.173171508848	9
0	4607	7311.867032415339	8
0	4610	7316.356417347019	7
0	4613	7318.314454196466	6
0	4615	7319.029599237741	7
0	4618	7319.754417780213	6
0	4620	7323.819829803095	7
0	4623	7326.084754430479	6
0	4625	7327.396913156381	5
0	4627	7329.233880128569	4
0	4629	7333.321222687742	3
0	4631	7334.78492333495	2
0	4633	7346.483722677067	3
0	4636	7347.432356270426	4
0	4639	7349.64566210718	3
0	4641	7351.916286057875	4
0	4644	7361.825925435365	3
0	4646	7364.646553133617	4
0	4649	7365.914414041727	3
0	4651	7367.222620548452	4
0	4654	7367.35346222317	3
0	4656	7367.763600222145	4
0	4659	7368.284365650127	5
0	4662	7372.117263305453	6
0	4665	7372.591948852879	7
0	4668	7375.2983377574	8
0	4670	7382.617280421543	9
0	4672	7387.097456967854	8
0	4675	7387.827783595292	7
0	4678	7388.949787424089	8
0	4680	7391.050491904749	9
0	4682	7392.832898002466	8
0	4685	7397.503657752433	7
0	4688	7398.990027199169	6
0	4690	7399.920344118582	5
0	4692	7401.232558920967	4
0	4694	7403.873220173552	3
0	4696	7417.004031298249	4
0	4699	7417.973431392095	3
0	4701	7419.75332337025	4
0	4704	7421.982299260337	5
0	4707	7426.002761933253	4
0	4709	7427.282574419451	5
0	4712	7432.601791670794	6
0	4715	7433.961468741107	5
0	4717	7434.315849830194	4
0	4719	7436.024464210055	5
0	4722	7439.696553597717	4
0	4724	7441.91236143516	5
0	4727	7445.421166441838	6
0	4730	7449.645396514755	7
0	4733	7452.284890093497	6
0	4735	7456.626529410722	7
0	4738	7457.19084326394	8
0	4740	7457.216706665369	9
0	4742	7459.263845674024	10
0	4744	7463.706420380552	9
0	4747	7464.434869258146	8
0	4750	7464.717457971766	7
0	4753	7467.378832538994	8
0	4755	7468.070991416824	9
0	4757	7472.877409335487	10
0	4759	7473.210387042859	9
0	4762	7473.233790077417	10
0	4764	7473.614446299094	11
0	4766	7474.173339992856	10
0	4769	7476.792681101789	11
0	4771	7480.528025892822	10
0	4774	7482.952877464779	9
0	4777	7486.26194597429	8
0	4780	7488.467104713141	7
0	4783	7490.252618770978	6
0	4785	7494.415026533611	5
0	4787	7494.484112964446	6
0	4790	7495.005226653322	7
0	4793	7495.79282458276	6
0	4795	7497.269472032192	7
0	4798	7500.456125987011	6
0	4800	7502.657746413255	7
0	4803	7502.791156805535	8
0	4805	7503.706446582438	9
0	4807	7504.994071592279	10
0	4809	7505.310843088661	11
0	4811	7506.520214422544	10
0	4814	7507.519437658039	11
0	4816	7510.476360511395	12
0	4818	7511.096395059764	11
0	4821	7513.771199324099	12
0	4823	7513.989920185464	11
0	4826	7515.747568332313	10
0	4829	7525.880732484464	11
0	4831	7526.202364489051	10
0	4834	7527.31134777157	9
0	4837	7529.874057700406	8
0	4840	7532.147769061164	9
0	4842	7532.266049483911	8
0	4845	7539.189710652684	9
0	4847	7544.074487318742	8
0	4850	7545.48376671913	7
0	4853	7558.067078214851	6
0	4855	7561.226327433788	7
0	4858	7565.274093970388	8
0	4860	7568.348727401612	7
0	4863	7572.465791567388	6
0	4865	7598.732978940107	5
0	4867	7600.479553409155	4
0	4869	7606.963189837461	5
0	4872	7618.204063441681	6
0	4875	7629.67529662952	5
0	4877	7640.595641771177	4
0	4879	7644.040716659287	5
0	4882	7644.518730456432	6
0	4885	7646.489941489064	7
0	4888	7646.568181156637	6
0	4890	7650.31253260957	5
0	4892	7651.307941940224	6
0	4895	7653.905933260124	5
0	4897	7659.552659877171	4
0	4899	7665.606198259579	3
0	4901	7672.766886496174	4
0	4904	7675.019028552968	3
0	4906	7680.446255675407	2
0	4908	7690.893570530542	3
0	4911	7691.994320132871	4
0	4914	7698.853572542431	3
0	4916	7699.589446343442	4
0	4919	7711.219068530258	3
0	4921	7711.321902094446	2
0	4923	7719.589991406273	3
0	4926	7729.775891333254	4
0	4929	7732.407966504611	5
0	4932	7737.673587306278	4
0	4934	7749.797196474208	3
0	4936	7753.866102251257	4
0	4939	7759.253740998905	3
0	4941	7759.525925347598	4
0	4944	7759.737872763724	3
0	4946	7760.165263267186	4
0	4949	7765.038850839853	3
0	4951	7765.322196507408	2
0	4953	7769.417895905756	3
0	4956	7771.517342714393	4
0	4959	7774.390961709161	5
0	4962	7776.403227540376	4
0	4964	7776.824402713662	5
0	4967	7779.240006109614	4
0	4969	7783.722892511879	3
0	4971	7787.690307214746	2
0	4973	7787.746699509945	3
0	4976	7804.749062016661	4
0	4979	7805.514656372133	5
0	4982	7806.324336959067	4
0	4984	7811.117874274193	3
0	4986	7816.490671165464	4
0	4989	7817.92677227231	5
0	4992	7821.607823370335	4
0	4994	7822.186310925829	3
0	4996	7828.862392746806	4
0	4999	7830.425859441308	3
0	5001	7832.855902789754	4
0	5004	7832.901921634797	5
0	5007	7834.097622106914	6
0	5010	7834.892995391049	5
0	5012	7849.259640142126	6
0	5015	7856.154824680482	7
0	5018	7857.001662054449	6
0	5020	7860.368787992882	7
0	5023	7862.405094497491	8
0	5025	7864.707646176054	7
0	5028	7868.279603997541	8
0	5030	7869.96266926103	9
0	5032	7876.435133846137	10
0	5034	7877.926616019638	11
0	5036	7878.342182337157	10
0	5039	7882.347170922939	11
0	5041	7883.413880731766	10
0	5044	7883.522182481886	9
0	5047	7885.923329121671	10
0	5049	7888.318270916155	9
0	5052	7891.319657115539	10
0	5054	7897.468552369769	11
0	5056	7899.464596430025	10
0	5059	7903.311542807091	11
0	5061	7904.112222300019	12
0	5063	7913.342681659263	11
0	5066	7914.759646764901	10
0	5069	7917.958398817546	11
0	5071	7918.649647744542	10
0	5074	7920.276488965407	9
0	5077	7922.3145962168	10
0	5079	7923.740391055571	11
0	5081	7926.777282262766	10
0	5084	7940.741296039391	9
0	5087	7946.469861165211	10
0	5089	7948.515558146931	9
0	5092	7950.349770427417	8
0	5095	7950.413702296481	7
0	5098	7954.061553569693	6
0	5100	7955.276063281865	5
0	5102	7955.565413339735	6
0	5105	7958.309943401881	5
0	5107	7961.937904851766	4
0	5109	7968.269572268914	3
0	5111	7969.125628889377	4
0	5114	7974.94780329816	5
0	5117	7979.43328005714	4
0	5119	7981.385171098098	5
0	5122	7985.668726404699	6
0	5125	7989.049495489304	5
0	5127	7990.618967702491	6
0	5130	7993.574606962095	5
0	5132	7994.684146998337	4
0	5134	7995.220048444007	5
0	5137	7996.952710633704	4
0	5139	7997.22670619165	5
0	5142	7997.546328248357	4
0	5144	7998.544232705356	5
0	5147	8000.517078980127	4
0	5149	8000.76807265056	5
0	5152	8002.60962643809	6
0	5155	8005.406368126585	7
0	5158	8005.761000258471	6
0	5160	8020.432924197919	5
0	5162	8029.919591000867	4
0	5164	8047.638460271481	3
0	5166	8050.711553013045	4
0	5169	8052.334328390186	3
0	5171	8058.865818744353	4
0	5174	8061.765815989093	3
0	5176	8068.510016028671	4
0	5179	8069.503880431758	5
0	5182	8074.857017082426	6
0	5185	8075.263156093589	5
0	5187	8076.50314279515	4
0	5189	8080.90915918209	3
0	5191	8087.239096799047	2
0	5193	8102.956724674994	1
0	5195	8103.901118358429	2
0	5198	8104.71012130339	3
0	5201	8107.591759864062	2
0	5203	8110.631806673245	3
0	5206	8129.238046371907	4
0	5209	8132.601132401284	3
0	5211	8136.325524143814	2
0	5213	8140.036771574366	1
0	5215	8144.097341358111	2
0	5218	8145.975941187591	3
0	5221	8150.185268346432	2
0	5223	8154.002641635334	3
0	5226	8159.212059743343	4
0	5229	8160.567290760103	5
0	5232	8164.904296145973	4
0	5234	8167.623058457422	3
0	5236	8178.117974059602	2
0	5238	8182.467721540621	3
0	5241	8185.199897208973	4
0	5244	8188.899189799295	5
0	5247	8190.556366713972	6
0	5250	8194.499088468606	7
0	5253	8200.734840730977	6
0	5255	8203.548321229398	7
0	5258	8206.837326915778	8
0	5260	8207.543180420524	9
0	5262	8208.332474256877	8
0	5265	8209.860043541057	7
0	5268	8222.535023190685	6
0	5270	8227.2800755607	7
0	5273	8234.896557093477	6
0	5275	8236.206611169259	5
0	5277	8249.675980684033	4
0	5279	8260.210179704691	5
0	5282	8263.420217872651	6
0	5285	8267.446584471492	7
0	5288	8270.229398679786	8
0	5290	8270.948623752295	7
0	5293	8272.819683188093	8
0	5295	8287.110822474836	9
0	5297	8290.898131521353	10
0	5299	8292.131093775175	9
0	5302	8302.799431767492	8
0	5305	8302.869317076142	9
0	5307	8308.161271640477	10
0	5309	8308.23767179033	9
0	5312	8313.168423032693	8
0	5315	8319.93449957722	7
0	5318	8323.820751623468	8
0	5320	8324.632617343137	7
0	5323	8325.343221679873	8
0	5325	8327.165603529004	9
0	5327	8327.489920330555	10
0	5329	8335.259598458959	9
0	5332	8336.116217536419	8
0	5335	8336.706721752293	9
0	5337	8339.524527209759	10
0	5339	8343.551837506799	11
0	5341	8354.425657503277	10
0	5344	8355.308001267914	9
0	5347	8363.627326501452	8
0	5350	8368.025094434814	7
0	5353	8379.77477977193	6
0	5355	8383.826603100432	5
0	5357	8385.078124906697	6
0	5360	8393.618177287442	7
0	5363	8399.089311033327	8
0	5365	8399.242966558702	9
0	5367	8401.723585590199	10
0	5369	8403.274516995124	9
0	5372	8407.780653849539	8
0	5375	8415.948735930912	7
0	5378	8419.558900442752	6
0	5380	8421.032358866769	7
0	5383	8423.73466155054	8
0	5385	8424.880356344682	9
0	5387	8425.210560803839	10
0	5389	8426.306318905458	9
0	5392	8427.679668088944	8
0	5395	8429.990709963349	7
0	5398	8434.709087013232	6
0	5400	8438.21278242096	7
0	5403	8441.431008762427	6
0	5405	8452.128262213513	5
0	5407	8453.636033010652	4
0	5409	8456.885738989984	5
0	5412	8461.452513538885	4
0	5414	8462.019518279824	5
0	5417	8462.912551737535	6
0	5420	8476.773059656661	5
0	5422	8477.931422573404	6
0	5425	8480.614183996304	7
0	5428	8481.009511954472	8
0	5430	8487.003187845447	9
0	5432	8487.178387377719	8
0	5435	8488.630088859314	9
0	5437	8490.694682590361	10
0	5439	8490.884254677324	9
0	5442	8493.895888300313	10
0	5444	8494.147825318133	11
0	5446	8496.946706791803	12
0	5448	8498.116139933353	13
0	5450	8499.098257293013	14
0	5452	8502.486081944896	15
0	5454	8504.085943181817	14
0	5457	8504.183353799247	15
0	5459	8507.427885189572	16
0	5461	8508.41937288577	17
0	5463	8513.408904161958	16
0	5466	8514.509366155959	15
0	5469	8516.189518136418	16
0	5471	8522.883738050526	15
0	5474	8525.92618288674	14
0	5477	8526.821824203483	15
0	5479	8528.848280213847	14
0	5482	8529.547201570378	13
0	5485	8530.748421677719	12
0	5488	8533.007001505885	11
0	5491	8534.864197977476	10
0	5494	8540.248917979551	11
0	5496	8544.596214860308	12
0	5498	8549.616706262983	13
0	5500	8552.153160581767	12
0	5503	8564.747265643303	11
0	5506	8572.471648373736	10
0	5509	8572.857739070334	9
0	5512	8573.482022245672	10
0	5514	8576.104391145649	11
0	5516	8581.834504765509	10
0	5519	8583.440509459199	9
0	5522	8586.577052237851	8
0	5525	8586.61261808416	9
0	5527	8587.523291998608	10
0	5529	8591.29389007945	9
0	5532	8592.868144124253	10
0	5534	8602.35453126438	9
0	5537	8605.740648588864	10
0	5539	8607.819765702621	9
0	5542	8608.521979968429	10
0	5544	8614.778382950373	9
0	5547	8616.100069999192	10
0	5549	8617.154005045358	9
0	5552	8631.207331603368	8
0	5555	8640.764503797261	7
0	5558	8648.555431110835	6
0	5560	8654.507054091079	7
0	5563	8655.547961341725	6
0	5565	8663.553467521958	5
0	5567	8668.08698961718	6
0	5570	8668.823278878702	7
0	5573	8672.740602674341	8
0	5575	8686.369125456645	9
0	5577	8689.264201112488	8
0	5580	8691.205827574108	9
0	5582	8696.400832239463	8
0	5585	8701.455147617569	7
0	5588	8703.906360946633	6
0	5590	8706.23972575552	5
0	5592	8706.996513954175	6
0	5595	8712.859648653376	5
0	5597	8716.080735771604	4
0	5599	8716.146396285551	5
0	5602	8724.60705287546	6
0	5605	8725.169663673862	5
0	5607	8729.688264914167	6
0	5610	8749.270022094681	7
0	5613	8751.60879968296	6
0	5615	8754.039919146504	7
0	5618	8754.164974667266	6
0	5620	8756.640874750399	7
0	5623	8763.898938060877	8
0	5625	8766.733051870686	9
0	5627	8768.181666086245	10
0	5629	8771.374561990274	9
0	5632	8775.423391739487	8
0	5635	8776.077676935894	9
0	5637	8778.125141768005	8
0	5640	8781.837076665593	9
0	5642	8782.328825064475	8
0	5645	8783.562821999164	7
0	5648	8784.846305888976	6
0	5650	8789.257404033041	5
0	5652	8790.168294739174	6
0	5655	8795.990995820931	5
0	5657	8796.128371400003	6
0	5660	8801.068438219483	7
0	5663	8813.047815793468	8
0	5665	8815.418575451246	9
0	5667	8824.47176540451	8
0	5670	8833.583348447567	9
0	5672	8835.329015859143	10
0	5674	8841.060926628031	11
0	5676	8842.008370622666	12
0	5678	8842.418447161893	13
0	5680	8842.685061304723	12
0	5683	8847.851755402515	13
0	5685	8848.135556781795	12
0	5688	8848.776819132352	13
0	5690	8848.860887802421	12
0	5693	8850.099639922396	11
0	5696	8850.284460824972	12
0	5698	8854.715283897613	13
0	5700	8857.74260161958	14
0	5702	8858.388804420959	13
0	5705	8860.34302128182	14
0	5707	8860.844555852622	13
0	5710	8866.974967271358	14
0	5712	8870.052784869733	15
0	5714	8870.319759034885	14
0	5717	8871.865834702484	13
0	5720	8874.098972450368	14
0	5722	8878.409845377711	13
0	5725	8881.220704009318	12
0	5728	8882.911229240262	11
0	5731	8883.327212550551	12
0	5733	8889.059400628593	11
0	5736	8896.214972148169	10
0	5739	8900.806388173339	11
0	5741	8900.861269681573	10
0	5744	8901.871608942973	9
0	5747	8904.323388192365	8
0	5750	8915.896779224697	9
0	5752	8916.915586076712	8
0	5755	8921.33733869118	9
0	5757	8924.127484133792	10
0	5759	8925.988564126056	9
0	5762	8932.444018215149	8
0	5765	8934.406628281078	9
0	5767	8937.26978978083	8
0	5770	8938.02667711447	9
0	5772	8941.665497510996	8
0	5775	8957.732141927061	7
0	5778	8958.995311105892	8
0	5780	8964.849828357591	7
0	5783	8967.711658203642	8
0	5785	8975.21452659743	7
0	5788	8977.455586015929	8
0	5790	8978.232025199478	7
0	5793	8991.254348398453	8
0	5795	9002.991462706476	7
0	5798	9010.594229254675	6
0	5800	9013.146681341978	5
0	5802	9016.739357880339	4
0	5804	9018.522465320277	3
0	5806	9023.963517479284	4
0	5809	9026.719471606702	5
0	5812	9026.899397624013	6
0	5815	9027.975923551516	7
0	5818	9030.448756628089	8
0	5820	9036.640061137717	9
0	5822	9038.261326650608	10
0	5824	9039.287569569141	9
0	5827	9042.885904259286	10
0	5829	9043.488593834986	9
0	5832	9043.916911796174	8
0	5835	9044.696781043904	7
0	5838	9044.960818012468	6
0	5840	9046.975966046056	7
0	5843	9050.911397772934	6
0	5845	9051.663418142018	7
0	5848	9056.456067662244	6
0	5850	9062.649283535611	7
0	5853	9066.070353952493	6
0	5855	9066.615010981276	5
0	5857	9068.987045342138	6
0	5860	9075.564784832161	5
0	5862	9082.687084771795	6
0	5865	9091.369049074366	7
0	5868	9095.098894520698	6
0	5870	9095.714135557193	7
0	5873	9104.247114419944	8
0	5875	9104.320986052657	7
0	5878	9111.20182053784	8
0	5880	9113.786130666608	9
0	5882	9115.391256999553	8
0	5885	9118.47084033052	7
0	5888	9124.062362606649	6
0	5890	9125.774517727954	7
0	5893	9130.445554741669	8
0	5895	9134.734022982425	7
0	5898	9137.190128235769	6
0	5900	9138.315783304402	7
0	5903	9138.885725701468	6
0	5905	9141.801668571493	7
0	5908	9144.457387345602	6
0	5910	9145.239599395083	7
0	5913	9147.848867195804	6
0	5915	9150.381724816843	5
0	5917	9155.60820260283	6
0	5920	9161.408407843777	5
0	5922	9161.414727021677	6
0	5925	9166.315690540393	5
0	5927	9167.61073297027	4
0	5929	9171.334755181944	5
0	5932	9174.597275173717	4
0	5934	9178.28117150483	3
0	5936	9183.248966857085	2
0	5938	9189.069166183831	3
0	5941	9197.350442416092	4
0	5944	9198.48959889312	5
0	5947	9200.007716626988	6
0	5950	9201.125236834799	5
0	5952	9203.340938482856	4
0	5954	9204.152308440382	3
0	5956	9207.048788708431	2
0	5958	9209.118964201228	1
0	5960	9217.242923132591	2
0	5963	9218.699214291889	3
0	5966	9232.175675244451	4
0	5969	9233.112458235021	3
0	5971	9233.940508191775	4
0	5974	9235.413176364435	3
0	5976	9240.659004375215	2
0	5978	9245.691518865516	1
0	5980	9247.553384228015	2
0	5983	9278.742449411545	1
0	5985	9282.24565998717	2
0	5988	9284.707335342074	3
0	5991	9299.634675239722	2
0	5993	9302.000552572678	3
0	5996	9303.271750541748	4
0	5999	9310.641614383201	3
0	6001	9318.253217429031	4
0	6004	9323.32894692517	3
0	6006	9324.534097137931	2
0	6008	9324.670349447335	3
0	6011	9325.332719682276	4
0	6014	9327.410555205603	3
0	6016	9341.141184663424	2
0	6018	9347.108358754108	3
0	6021	9348.576028301459	4
0	6024	9350.136996943035	3
0	6026	9375.264006984699	2
0	6028	9377.532638420932	1
0	6030	9379.102102145833	2
0	6033	9382.114091386874	3
0	6036	9385.40465790015	2
0	6038	9391.794025212718	3
0	6041	9396.888098619779	4
0	6044	9419.034065687738	3
0	6046	9420.615368600265	2
0	6048	9424.426673424064	3
0	6051	9425.755335180023	4
0	6054	9432.746397075061	5
0	6057	9433.602285141763	4
0	6059	9439.975431449774	3
0	6061	9442.926456080155	2
0	6063	9449.996137911401	3
0	6066	9457.388641900302	2
0	6068	9466.089579708772	3
0	6071	9480.457693250279	4
0	6074	9480.559740873117	5
0	6077	9488.814100902912	6
0	6080	9490.464537042327	7
0	6083	9492.047829867721	6
0	6085	9492.058088158013	5
0	6087	9492.631912003445	6
0	6090	9497.524899882146	7
0	6093	9509.264355292097	8
0	6095	9511.58760012495	7
0	6098	9512.379687088501	8
0	6100	9517.937521372271	7
0	6103	9518.056270472275	8
0	6105	9522.62086612684	7
0	6108	9522.748729906573	6
0	6110	9525.874818043449	5
0	6112	9528.51329654193	4
0	6114	9538.460797752798	5
0	6117	9540.330018021623	4
0	6119	9542.347044586883	3
0	6121	9557.368864991149	2
0	6123	9560.433903684161	1
0	6125	9561.175323354626	2
0	6128	9581.503018967404	3
0	6131	9582.968460556872	2
0	6133	9585.258821706168	3
0	6136	9586.098048315434	4
0	6139	9587.232096066047	3
0	6141	9590.324121840338	2
0	6143	9594.624753502304	3
0	6146	9607.672817827151	2
0	6148	9611.398814898877	1
0	6150	9613.236446220823	2
0	6153	9618.75723361041	3
0	6156	9636.393937761942	4
0	6159	9636.863634109325	5
0	6162	9637.269672226338	4
0	6164	9643.522770591698	3
0	6166	9650.664667644625	4
0	6169	9656.937857188893	5
0	6172	9664.382082565144	4
0	6174	9671.368858322185	5
0	6177	9684.664465286109	6
0	6180	9686.357316842376	5
0	6182	9697.245369502893	6
0	6185	9703.991422666622	7
0	6188	9708.387048307878	6
0	6190	9708.53786074438	7
0	6193	9713.610391329987	8
0	6195	9718.994460790121	9
0	6197	9723.889915228017	8
0	6200	9738.719192588873	7
0	6203	9740.058523537485	8
0	6205	9740.286377055786	7
0	6208	9740.452307323709	8
0	6210	9744.799302816493	9
0	6212	9750.864549111269	10
0	6214	9752.247369586054	9
0	6217	9756.6423770305	8
0	6220	9761.056942259676	7
0	6223	9761.740544466884	6
0	6225	9761.920838807647	5
0	6227	9769.947326169027	6
0	6230	9778.122071734858	7
0	6233	9789.961690823606	8
0	6235	9790.757481194431	7
0	6238	9794.386952517028	8
0	6240	9796.973544001647	7
0	6243	9800.827589460893	6
0	6245	9804.757255050399	7
0	6248	9806.16005246063	8
0	6250	9806.640927587532	7
0	6253	9813.149511092113	6
0	6255	9816.162540556414	7
0	6258	9825.117423502435	6
0	6260	9827.052829825741	7
0	6263	9833.281646719852	6
0	6265	9835.830767263908	7
0	6268	9841.62712450438	6
0	6270	9858.032571583685	7
0	6273	9861.195109026661	6
0	6275	9866.06641601095	5
0	6277	9870.504472331708	4
0	6279	9880.186468967274	5
0	6282	9884.51889454291	4
0	6284	9885.395001891538	3
0	6286	9889.605464314692	2
0	6288	9891.191300124956	3
0	6291	9892.043669355158	4
0	6294	9892.704828338968	3
0	6296	9899.893109863734	2
0	6298	9902.228104353697	3
0	6301	9903.679271997855	4
0	6304	9910.587837524637	3
0	6306	9913.616709343494	4
0	6309	9923.182421674954	3
0	6311	9928.561809465242	4
0	6314	9929.237782128343	5
0	6317	9946.643227524684	6
0	6320	9949.096398632598	7
0	6323	9952.543471613339	6
0	6325	9957.440184257992	5
0	6327	9964.837801856227	6
0	6330	9969.062352212654	5
0	6332	9969.560399699063	6
0	6335	9972.584989115118	7
0	6338	9973.881091542432	8
0	6340	9975.755082460689	9
0	6342	9975.821818525109	10
0	6344	9979.627257116577	9
0	6347	9987.052603353287	10
0	6349	9988.500951540945	9
0	6352	9989.096907732499	8
0	6355	9989.323751825852	7
0	6358	9992.629286701341	8
0	6360	9999.817390130017	9
0	6362	10001.400461918682	8
0	6365	10005.239853581097	9
0	6367	10005.792401210282	10
0	6369	10006.424086162615	9
0	6372	10009.277649416083	8
0	6375	10011.102340138847	7
0	6378	10013.989006732297	8
0	6380	10016.550366491242	7
0	6383	10018.352173485218	6
0	6385	10021.934735510914	5
0	6387	10022.91990090949	6
0	6390	10029.67575816661	7
0	6393	10031.457511736532	6
0	6395	10037.58460599126	5
0	6397	10039.802659798018	4
0	6399	10040.886650610686	5
0	6402	10041.357295842501	4
0	6404	10042.453448571459	5
0	6407	10047.849830562783	6
0	6410	10056.614807852742	7
0	6413	10068.04315267449	6
0	6415	10069.066428544142	5
0	6417	10075.965657100912	4
0	6419	10079.294574652696	3
0	6421	10086.446751411217	4
0	6424	10089.535718819781	3
0	6426	10093.645365558151	4
0	6429	10094.71644691746	5
0	6432	10101.46688562333	6
0	6435	10106.341901350045	5
0	6437	10109.269260424807	4
0	6439	10111.379616953882	5
0	6442	10111.528138593523	6
0	6445	10122.298878913161	5
0	6447	10123.258834595632	6
0	6450	10124.891954339541	7
0	6453	10127.126865971817	6
0	6455	10131.278936444458	5
0	6457	10132.309796397785	4
0	6459	10132.557705200678	5
0	6462	10134.33260901927	4
0	6464	10136.513998181322	5
0	6467	10138.180521458255	4
0	6469	10145.018608952952	3
0	6471	10148.615696735173	4
0	6474	10150.919182624123	3
0	6476	10155.37872444274	4
0	6479	10157.329326267102	3
0	6481	10171.938974284348	2
0	6483	10173.040122321742	3
0	6486	10177.317612628953	2
0	6488	10204.873028505326	3
0	6491	10217.807292035085	4
0	6494	10221.350966853466	3
0	6496	10225.23556298439	4
0	6499	10225.530807641058	3
0	6501	10243.398735230852	4
0	6504	10244.574669879148	5
0	6507	10246.001709077788	4
0	6509	10256.340674789928	3
0	6511	10257.859611910778	4
0	6514	10264.42199532001	3
0	6516	10268.685925106036	4
0	6519	10269.861807422285	5
0	6522	10272.40645492974	4
0	6524	10274.848437571487	5
0	6527	10276.53320618453	4
0	6529	10278.583830974579	5
0	6532	10279.972217800991	6
0	6535	10281.235939645833	5
0	6537	10282.741971264505	6
0	6540	10284.743301061217	7
0	6543	10285.458566963237	8
0	6545	10291.970140266865	7
0	6548	10296.899777810887	6
0	6550	10302.155933295806	5
0	6552	10316.162116048457	4
0	6554	10316.478698119945	5
0	6557	10316.523681415544	4
0	6559	10320.575549351335	5
0	6562	10322.033492189763	4
0	6564	10329.517952091071	3
0	6566	10336.593203777392	4
0	6569	10338.437322930611	3
0	6571	10341.802066100008	2
0	6573	10345.217664881593	3
0	6576	10346.087452951186	4
0	6579	10348.200863998351	3
0	6581	10348.349520446853	4
0	6584	10350.771494428964	3
0	6586	10351.851840937186	4
0	6589	10355.84733592884	3
0	6591	10361.362346456632	2
0	6593	10372.11161726423	3
0	6596	10394.170809121952	4
0	6599	10403.590070000759	5
0	6602	10405.03328516631	6
0	6605	10418.343022459322	5
0	6607	10419.899543634287	4
0	6609	10423.232397746905	3
0	6611	10427.14183740976	2
0	6613	10429.250823398561	3
0	6616	10433.845424201917	4
0	6619	10437.625759424083	5
0	6622	10447.276516028828	6
0	6625	10447.36664300236	5
0	6627	10449.431081797927	6
0	6630	10450.785536357784	5
0	6632	10457.750213856421	4
0	6634	10457.750870310067	5
0	6637	10464.933512016604	4
0	6639	10466.420369798207	3
0	6641	10470.679817968464	2
0	6643	10472.663983240488	3
0	6646	10478.359020969231	4
0	6649	10505.662859931073	3
0	6651	10507.425600266832	4
0	6654	10508.569426305573	3
0	6656	10511.088166023288	4
0	6659	10511.419540082566	3
0	6661	10512.169701524879	4
0	6664	10521.192835660093	3
0	6666	10522.556401638186	2
0	6668	10536.234851957707	1
0	6670	10544.476018762242	2
0	6673	10545.668273788204	3
0	6676	10549.451305215702	2
0	6678	10558.457187571044	1
0	6680	10561.209155700823	2
0	6683	10571.988544292066	3
0	6686	10580.451468844699	4
0	6689	10580.859907845631	5
0	6692	10588.65061975969	6
0	6695	10588.80978361185	7
0	6698	10589.092929765695	8
0	6700	10599.098987840512	9
0	6702	10600.099449336133	8
0	6705	10609.30142996771	9
0	6707	10616.444482631233	10
0	6709	10620.012752864844	9
0	6712	10621.460292169544	10
0	6714	10621.896548558558	9
0	6717	10625.119635016491	8
0	6720	10626.148931210829	7
0	6723	10627.001905476631	8
0	6725	10634.836320375684	7
0	6728	10638.139809841816	6
0	6730	10638.272925661994	5
0	6732	10644.383956532382	6
0	6735	10645.196901637952	5
0	6737	10649.101208426679	4
0	6739	10665.072117555196	5
0	6742	10665.679697139662	4
0	6744	10666.843350852441	3
0	6746	10666.876169902471	2
0	6748	10668.938334319306	1
0	6750	10671.804948321711	2
0	6753	10678.962047032248	3
0	6756	10679.619518324562	4
0	6759	10687.288177139373	3
0	6761	10691.16501713114	4
0	6764	10693.844824261055	5
0	6767	10703.403184184323	4
0	6769	10715.100155881069	3
0	6771	10731.07823604647	4
0	6774	10741.794667434331	5
0	6777	10747.158006287083	4
0	6779	10752.863549171983	5
0	6782	10755.695998225981	4
0	6784	10768.354418557768	5
0	6787	10779.096644143846	4
0	6789	10781.1720451894	3
0	6791	10787.511378932175	4
0	6794	10789.288587518782	5
0	6797	10792.744731531912	6
0	6800	10796.095039535624	7
0	6803	10797.032802467354	6
0	6805	10798.596872796718	7
0	6808	10800.469961985879	6
0	6810	10800.585949493733	5
0	6812	10811.70947642094	4
0	6814	10815.186136761519	5
0	6817	10818.535088452467	6
0	6820	10823.722380497938	5
0	6822	10828.537079972235	6
0	6825	10829.171921032285	7
0	6828	10829.634850777544	6
0	6830	10829.783659024083	5
0	6832	10848.315854937391	6
0	6835	10849.740844213475	5
0	6837	10853.438469222332	6
0	6840	10853.684485689934	5
0	6842	10855.835014828725	4
0	6844	10856.771377224898	5
0	6847	10863.087432175005	4
0	6849	10870.512925341787	3
0	6851	10874.429523505487	4
0	6854	10878.208731062561	5
0	6857	10880.95306535236	4
0	6859	10883.109215342076	3
0	6861	10890.549441577905	4
0	6864	10899.197916373356	3
0	6866	10900.318144162361	2
0	6868	10907.191886267198	3
0	6871	10917.636136266546	2
0	6873	10919.332497540524	3
0	6876	10922.31760518571	2
0	6878	10925.529472164045	3
0	6881	10926.463990252312	4
0	6884	10928.547415185992	5
0	6887	10936.820264294681	6
0	6890	10937.492376285069	7
0	6893	10940.742969118798	6
0	6895	10943.619111519859	5
0	6897	10961.770814509318	4
0	6899	10968.627072061879	3
0	6901	10979.436110807151	4
0	6904	10990.698400894409	3
0	6906	10992.570632479066	4
0	6909	10999.482325367845	5
0	6912	10999.741050758528	6
0	6915	11003.344169637756	5
0	6917	11015.489881340941	4
0	6919	11018.389385426111	5
0	6922	11019.635809273269	4
0	6924	11021.850129351887	3
0	6926	11024.860031952786	2
0	6928	11030.590086338973	3
0	6931	11038.698346050867	2
0	6933	11046.81867454693	1
0	6935	11049.977554965707	0
0	6937	11066.966190037888	1
0	6940	11068.717484104653	2
0	6943	11073.837974919194	1
0	6945	11074.453254300683	0
0	6947	11079.188484487053	1
0	6950	11082.68893581028	2
0	6953	11085.593167150363	3
0	6956	11115.184548768826	4
0	6959	11115.822150812064	5
0	6962	11115.862374640956	4
0	6964	11116.012115148884	5
0	6967	11121.32391502616	6
0	6970	11121.509893732885	7
0	6973	11123.19575801314	8
0	6975	11126.28508186531	9
0	6977	11127.282421239823	8
0	6980	11127.439817682307	7
0	6983	11132.721377815067	6
0	6985	11143.020863163517	5
0	6987	11143.263335833091	4
0	6989	11150.297449892067	5
0	6992	11159.442258110737	6
0	6995	11159.851387188874	7
0	6998	11160.338502774906	6
0	7000	11160.761992709671	7
0	7003	11163.796561202476	8
0	7005	11168.213115691546	9
0	7007	11175.077630487187	8
0	7010	11182.260475971581	7
0	7013	11189.087178964343	8
0	7015	11194.726947768099	9
0	7017	11197.971196742891	10
0	7019	11199.343351826286	9
0	7022	11199.715447872452	8
0	7025	11199.748400696114	9
0	7027	11201.888778322975	8
0	7030	11206.795466451366	7
0	7033	11211.995652749084	6
0	7035	11217.669308890699	5
0	7037	11220.93870815162	4
0	7039	11222.71729365743	5
0	7042	11225.871186067555	4
0	7044	11230.132352973339	5
0	7047	11230.280327815214	4
0	7049	11232.923156520375	5
0	7052	11233.775713547854	4
0	7054	11234.531813838912	5
0	7057	11242.250804984921	6
0	7060	11242.596928392952	5
0	7062	11243.831531474723	4
0	7064	11245.656244871473	3
0	7066	11266.92591578875	4
0	7069	11269.564760937862	3
0	7071	11270.751461217128	2
0	7073	11273.807646755801	3
0	7076	11276.366077943569	4
0	7079	11286.22140221627	5
0	7082	11299.938148749385	6
0	7085	11300.347285054769	5
0	7087	11303.39412620152	6
0	7090	11303.693829113801	7
0	7093	11307.156052285885	8
0	7095	11310.947951996736	7
0	7098	11314.547411599171	6
0	7100	11317.249060804098	7
0	7103	11327.373863964497	8
0	7105	11336.815452934712	7
0	7108	11339.906244033876	8
0	7110	11343.40862468095	9
0	7112	11344.794574614761	8
0	7115	11362.556950310934	9
0	7117	11370.572855307379	8
0	7120	11375.437294480155	9
0	7122	11375.915664295274	8
0	7125	11376.911884029801	9
0	7127	11377.144487692925	10
0	7129	11379.777026275454	9
0	7132	11384.488118609818	8
0	7135	11385.216114245563	7
0	7138	11387.78424386143	6
0	7140	11390.976185334064	7
0	7143	11396.34597318254	8
0	7145	11398.566745997798	9
0	7147	11403.925107871911	8
0	7150	11404.099506614744	7
0	7153	11406.077904859255	6
0	7155	11413.312294802468	7
0	7158	11413.916769972932	6
0	7160	11415.912160807414	7
0	7163	11418.985081893405	8
0	7165	11420.209191955737	9
0	7167	11423.04899986603	8
0	7170	11427.597074737305	7
0	7173	11433.57734362228	8
0	7175	11439.491210295419	9
0	7177	11445.790255124339	8
0	7180	11447.076755899289	9
0	7182	11447.199644029141	8
0	7185	11447.604347912278	7
0	7188	11449.764706587038	6
0	7190	11452.206060405945	7
0	7193	11459.427786885697	6
0	7195	11464.58041419068	5
0	7197	11468.279287089719	6
0	7200	11468.361610832786	7
0	7203	11474.394285690788	6
0	7205	11474.722276439289	7
0	7208	11475.017942846386	6
0	7210	11479.913608351954	7
0	7213	11481.390828982933	6
0	7215	11488.328463201738	5
0	7217	11491.333773359979	4
0	7219	11491.519971930095	5
0	7222	11497.127938018308	4
0	7224	11507.17866572571	3
0	7226	11519.789050586998	2
0	7228	11529.210811677902	3
0	7231	11532.687150429683	4
0	7234	11533.796049883083	3
0	7236	11538.900340710414	2
0	7238	11542.912690473799	3
0	7241	11543.805307761939	4
0	7244	11547.008164074759	3
0	7246	11552.730883885765	2
0	7248	11554.318748451151	3
0	7251	11556.690482146483	2
0	7253	11560.97552469494	3
0	7256	11575.497349756986	4
0	7259	11578.253743831548	5
0	7262	11581.621234021784	6
0	7265	11583.396846793963	5
0	7267	11584.617087299011	6
0	7270	11593.688983034168	5
0	7272	11598.839773266554	6
0	7275	11599.911247248123	5
0	7277	11601.970780718283	4
0	7279	11603.72995419764	3
0	7281	11609.93115430038	4
0	7284	11612.684466601398	5
0	7287	11619.038709628837	6
0	7290	11621.305919593407	7
0	7293	11622.148958535782	8
0	7295	11622.647857917765	9
0	7297	11632.127890418266	10
0	7299	11635.642897171417	11
0	7301	11636.983644002669	12
0	7303	11642.257800508607	11
0	7306	11642.75464445667	10
0	7309	11642.760397612507	11
0	7311	11653.096023770314	12
0	7313	11653.174625980594	11
0	7316	11655.221741504129	10
0	7319	11656.526152192027	9
0	7322	11659.179747794438	8
0	7325	11664.93257928668	9
0	7327	11669.781306164547	8
0	7330	11674.505422232615	9
0	7332	11677.504370092048	8
0	7335	11685.182853133	9
0	7337	11702.784181659084	10
0	7339	11705.382733965983	11
0	7341	11706.225531974573	10
0	7344	11723.246846554812	9
0	7347	11728.376632036543	10
0	7349	11729.433600718897	11
0	7351	11731.627299486345	10
0	7354	11733.083835163252	11
0	7356	11735.755761742495	12
0	7358	11738.647210613444	11
0	7361	11740.764424488835	10
0	7364	11741.526025998693	9
0	7367	11741.908803769133	8
0	7370	11743.370078838454	7
0	7373	11752.872669906348	8
0	7375	11755.405517500807	7
0	7378	11758.037428974059	8
0	7380	11760.287322597194	7
0	7383	11762.887786830105	6
0	7385	11765.828843211581	7
0	7388	11769.083570870275	6
0	7390	11770.038091980272	7
0	7393	11771.758085104608	6
0	7395	11779.934211531704	5
0	7397	11780.716135517322	6
0	7400	11789.213646313154	7
0	7403	11796.368915287011	8
0	7405	11797.460789894151	9
0	7407	11798.448043919415	8
0	7410	11799.71784805486	9
0	7412	11811.935773249882	10
0	7414	11813.267888869297	11
0	7416	11813.668282111609	10
0	7419	11814.187151097757	9
0	7422	11817.402741099313	8
0	7425	11821.459173892118	7
0	7428	11822.277219107621	6
0	7430	11823.020947056269	7
0	7433	11823.635688153724	6
0	7435	11824.111294494381	7
0	7438	11829.287136110249	8
0	7440	11838.382219643892	9
0	7442	11841.210279891554	10
0	7444	11843.494339517599	9
0	7447	11844.14529846801	8
0	7450	11846.500184038783	9
0	7452	11852.48121696491	8
0	7455	11856.127116645953	9
0	7457	11859.091324978484	10
0	7459	11864.246851700259	9
0	7462	11869.253048150417	10
0	7464	11874.620755663545	9
0	7467	11880.058436269468	8
0	7470	11880.930621153138	7
0	7473	11889.03206233992	6
0	7475	11889.936183657685	5
0	7477	11895.008646595012	6
0	7480	11895.086980716932	7
0	7483	11895.727815175741	6
0	7485	11903.731605437166	7
0	7488	11906.568727754732	6
0	7490	11907.264723940649	5
0	7492	11910.887650108794	4
0	7494	11915.144549308716	3
0	7496	11915.435184702725	2
0	7498	11920.221612645735	3
0	7501	11923.820563961586	2
0	7503	11937.162295201362	3
0	7506	11946.126691823317	4
0	7509	11947.824802878644	5
0	7512	11949.068398666769	4
0	7514	11962.078048023117	5
0	7517	11964.046864301476	6
0	7520	11973.103984437474	7
0	7523	11978.816076085624	6
0	7525	11979.358895927342	5
0	7527	11981.625543303641	4
0	7529	11983.436604092214	5
0	7532	11984.819196149898	6
0	7535	11984.953250613688	7
0	7538	11991.569337454746	6
0	7540	11996.471558531754	7
0	7543	12009.279413098263	6
0	7545	12013.401388640635	5
0	7547	12013.57176672429	4
0	7549	12016.790192474891	3
0	7551	12017.493245320955	4
0	7554	12022.985013899814	5
0	7557	12024.206098865854	6
0	7560	12025.39117585715	5
0	7562	12026.667405024444	4
0	7564	12030.430901171958	5
0	7567	12030.50238601964	6
0	7570	12034.649456582256	7
0	7573	12036.908344571631	8
0	7575	12037.676692848413	9
0	7577	12037.791696261633	8
0	7580	12044.455034505127	7
0	7583	12053.957470290512	6
0	7585	12060.399872790931	7
0	7588	12062.800297883974	8
0	7590	12072.741532013065	7
0	7593	12074.017171069837	6
0	7595	12078.367002137148	5
0	7597	12079.484097393735	4
0	7599	12092.946003266812	5
0	7602	12098.478337706964	4
0	7604	12098.861793035635	3
0	7606	12108.122560879298	4
0	7609	12108.958099297249	3
0	7611	12110.356875438259	2
0	7613	12117.933507123637	1
0	7615	12118.891840915787	2
0	7618	12120.955423822664	1
0	7620	12127.206609161853	0
0	7622	12133.329896701806	1
0	7625	12134.784878366549	2
0	7628	12142.867397514566	1
0	7630	12158.623795324683	2
0	7633	12159.359629573501	1
0	7635	12163.190343127422	2
0	7638	12167.327546591711	1
0	7640	12175.439206370653	2
0	7643	12179.768233575496	3
0	7646	12180.376614607366	4
0	7649	12199.808775990254	5
0	7652	12201.152162945539	6
0	7655	12202.102915283701	5
0	7657	12211.339842000747	6
0	7660	12215.548646496583	7
0	7663	12218.523718697526	8
0	7665	12222.712818294274	9
0	7667	12225.282007106408	10
0	7669	12227.846612236114	9
0	7672	12233.871893231191	8
0	7675	12245.034530697417	7
0	7678	12253.902139946291	6
0	7680	12257.828836499942	5
0	7682	12273.397814346889	4
0	7684	12277.649293450334	3
0	7686	12278.836383586417	2
0	7688	12287.954659755573	1
0	7690	12295.228002516655	0
0	7692	12299.860815183299	1
0	7695	12301.774393677816	2
0	7698	12303.121800221079	3
0	7701	12307.742248813375	4
0	7704	12308.212468446597	3
0	7706	12314.2897427753	2
0	7708	12329.561461092484	3
0	7711	12333.053176828303	2
0	7713	12333.741220708975	1
0	7715	12334.635584211785	2
0	7718	12337.901012355807	3
0	7721	12338.329251344537	4
0	7724	12344.96320352165	5
0	7727	12346.304809966933	6
0	7730	12348.456870608171	5
0	7732	12348.91020354587	4
0	7734	12350.055194595179	5
0	7737	12363.580636407509	4
0	7739	12367.452760872366	5
0	7742	12367.625613133182	4
0	7744	12370.605848932617	3
0	7746	12379.211499178423	2
0	7748	12380.705825991947	3
0	7751	12387.5523850625	2
0	7753	12388.449111643516	1
0	7755	12391.419237146071	2
0	7758	12393.286601650328	3
0	7761	12397.231163143957	4
0	7764	12398.924959977066	5
0	7767	12400.634346699671	6
0	7770	12402.517901429656	5
0	7772	12402.859841115307	6
0	7775	12406.111440729638	5
0	7777	12411.497221438881	4
0	7779	12413.821914187827	3
0	7781	12418.705015010424	4
0	7784	12419.83166561246	5
0	7787	12438.454052590959	6
0	7790	12440.625824997056	5
0	7792	12440.842412816629	4
0	7794	12442.202632969347	3
0	7796	12442.928750239426	2
0	7798	12451.842445354755	1
0	7800	12458.188260560581	2
0	7803	12465.628593827327	3
0	7806	12466.792116938312	4
0	7809	12476.260840644737	3
0	7811	12482.451671575083	4
0	7814	12482.710936979396	5
0	7817	12491.846075458905	4
0	7819	12501.033340540927	5
0	7822	12501.41524015576	6
0	7825	12504.721800837864	5
0	7827	12506.831226776734	4
0	7829	12511.75777963996	3
0	7831	12514.098413648976	4
0	7834	12520.552162472336	3
0	7836	12520.785504070915	2
0	7838	12524.895055913476	1
0	7840	12525.269242523073	2
0	7843	12531.404185501771	1
0	7845	12546.482876058164	2
0	7848	12549.735597883711	3
0	7851	12549.965926173217	4
0	7854	12556.537632159492	5
0	7857	12558.017621968254	6
0	7860	12566.775819238721	5
0	7862	12580.080096170642	6
0	7865	12580.772110470547	7
0	7868	12584.326782880797	6
0	7870	12584.440387518026	5
0	7872	12586.324960199785	6
0	7875	12592.359100701319	5
0	7877	12594.921937465744	6
0	7880	12595.745083360855	7
0	7883	12609.829894013032	8
0	7885	12611.133506651128	7
0	7888	12613.912238179455	6
0	7890	12620.892180328952	5
0	7892	12628.405580584197	4
0	7894	12632.024193682551	5
0	7897	12633.135345759419	4
0	7899	12633.423634989277	3
0	7901	12634.911385745041	4
0	7904	12638.22838854656	3
0	7906	12640.462846603932	4
0	7909	12640.526299720894	3
0	7911	12646.565641043781	4
0	7914	12648.78251115825	5
0	7917	12651.369703806855	4
0	7919	12654.075532551362	3
0	7921	12657.145673605338	2
0	7923	12657.260349666955	3
0	7926	12660.770520358119	4
0	7929	12664.069470516749	3
0	7931	12668.192241785686	4
0	7934	12678.289464296395	5
0	7937	12692.484774916654	6
0	7940	12700.45577392741	7
0	7943	12701.369594056831	6
0	7945	12704.971827011716	7
0	7948	12705.606371314128	8
0	7950	12708.478272017135	7
0	7953	12709.332488769023	8
0	7955	12712.892740629509	7
0	7958	12714.339721021051	8
0	7960	12724.272062967666	7
0	7963	12727.047587335609	8
0	7965	12728.694679551593	7
0	7968	12731.697557177345	8
0	7970	12732.646031951082	7
0	7973	12735.465248113425	8
0	7975	12735.805548555622	9
0	7977	12740.062420894212	8
0	7980	12745.37148898381	7
0	7983	12748.651118965579	6
0	7985	12749.056150870676	7
0	7988	12750.537292923512	8
0	7990	12752.815933218529	9
0	7992	12758.198849050822	10
0	7994	12763.038197168413	9
0	7997	12763.594974407257	8
0	8000	12767.744566071943	7
0	8003	12769.981292156136	8
0	8005	12772.317629276684	7
0	8008	12773.805150672387	6
0	8010	12791.722680653488	7
0	8013	12793.96254601128	6
0	8015	12794.010082046537	7
0	8018	12796.245494399827	8
0	8020	12800.175527900282	9
0	8022	12804.699226897483	8
0	8025	12814.237175435964	9
0	8027	12816.758287169787	8
0	8030	12819.253502233346	7
0	8033	12821.984119408318	6
0	8035	12827.660509153378	5
0	8037	12832.742656084348	4
0	8039	12835.552095198994	5
0	8042	12836.492947749636	6
0	8045	12839.086474173976	7
0	8048	12842.307237357883	6
0	8050	12845.180952717671	5
[...]
1	7197	11468.279287089719	0
1	7200	11468.361610832786	0
1	7203	11474.394285690788	0
1	7205	11474.722276439289	0
1	7208	11475.017942846386	0
1	7210	11479.913608351954	0
1	7213	11481.390828982933	0
1	7215	11488.328463201738	0
1	7217	11491.333773359979	0
1	7219	11491.519971930095	0
1	7222	11497.127938018308	0
1	7224	11507.17866572571	0
1	7226	11519.789050586998	0
1	7228	11529.210811677902	0
1	7231	11532.687150429683	0
1	7234	11533.796049883083	0
1	7236	11538.900340710414	0
1	7238	11542.912690473799	0
1	7241	11543.805307761939	0
1	7244	11547.008164074759	0
1	7246	11552.730883885765	0
1	7248	11554.318748451151	0
1	7251	11556.690482146483	0
1	7253	11560.97552469494	0
1	7256	11575.497349756986	0
1	7259	11578.253743831548	0
1	7262	11581.621234021784	0
1	7265	11583.396846793963	0
1	7267	11584.617087299011	0
1	7270	11593.688983034168	0
1	7272	11598.839773266554	0
1	7275	11599.911247248123	0
1	7277	11601.970780718283	0
1	7279	11603.72995419764	0
1	7281	11609.93115430038	0
1	7284	11612.684466601398	0
1	7287	11619.038709628837	0
1	7290	11621.305919593407	0
1	7293	11622.148958535782	1
1	7295	11622.647857917765	2
1	7297	11632.127890418266	3
1	7299	11635.642897171417	4
1	7301	11636.983644002669	5
1	7303	11642.257800508607	4
1	7306	11642.75464445667	3
1	7309	11642.760397612507	4
1	7311	11653.096023770314	5
1	7313	11653.174625980594	4
1	7316	11655.221741504129	3
1	7319	11656.526152192027	2
1	7322	11659.179747794438	1
1	7325	11664.93257928668	2
1	7327	11669.781306164547	1
1	7330	11674.505422232615	2
1	7332	11677.504370092048	1
1	7335	11685.182853133	2
1	7337	11702.784181659084	3
1	7339	11705.382733965983	4
1	7341	11706.225531974573	3
1	7344	11723.246846554812	2
1	7347	11728.376632036543	3
1	7349	11729.433600718897	4
1	7351	11731.627299486345	3
1	7354	11733.083835163252	4
1	7356	11735.755761742495	5
1	7358	11738.647210613444	4
1	7361	11740.764424488835	3
1	7364	11741.526025998693	2
1	7367	11741.908803769133	1
1	7370	11743.370078838454	0
1	7373	11752.872669906348	1
1	7375	11755.405517500807	0
1	7378	11758.037428974059	1
1	7380	11760.287322597194	0
1	7383	11762.887786830105	0
1	7385	11765.828843211581	0
1	7388	11769.083570870275	0
1	7390	11770.038091980272	0
1	7393	11771.758085104608	0
1	7395	11779.934211531704	0
1	7397	11780.716135517322	0
1	7400	11789.213646313154	0
1	7403	11796.368915287011	1
1	7405	11797.460789894151	2
1	7407	11798.448043919415	1
1	7410	11799.71784805486	2
1	7412	11811.935773249882	3
1	7414	11813.267888869297	4
1	7416	11813.668282111609	3
1	7419	11814.187151097757	2
1	7422	11817.402741099313	1
1	7425	11821.459173892118	0
1	7428	11822.277219107621	0
1	7430	11823.020947056269	0
1	7433	11823.635688153724	0
1	7435	11824.111294494381	0
1	7438	11829.287136110249	1
1	7440	11838.382219643892	2
1	7442	11841.210279891554	3
1	7444	11843.494339517599	2
1	7447	11844.14529846801	1
1	7450	11846.500184038783	2
1	7452	11852.48121696491	1
1	7455	11856.127116645953	2
1	7457	11859.091324978484	3
1	7459	11864.246851700259	2
1	7462	11869.253048150417	3
1	7464	11874.620755663545	2
1	7467	11880.058436269468	1
1	7470	11880.930621153138	0
1	7473	11889.03206233992	0
1	7475	11889.936183657685	0
1	7477	11895.008646595012	0
1	7480	11895.086980716932	0
1	7483	11895.727815175741	0
1	7485	11903.731605437166	0
1	7488	11906.568727754732	0
1	7490	11907.264723940649	0
1	7492	11910.887650108794	0
1	7494	11915.144549308716	0
1	7496	11915.435184702725	0
1	7498	11920.221612645735	0
1	7501	11923.820563961586	0
1	7503	11937.162295201362	0
1	7506	11946.126691823317	0
1	7509	11947.824802878644	0
1	7512	11949.068398666769	0
1	7514	11962.078048023117	0
1	7517	11964.046864301476	0
1	7520	11973.103984437474	0
1	7523	11978.816076085624	0
1	7525	11979.358895927342	0
1	7527	11981.625543303641	0
1	7529	11983.436604092214	0
1	7532	11984.819196149898	0
1	7535	11984.953250613688	0
1	7538	11991.569337454746	0
1	7540	11996.471558531754	0
1	7543	12009.279413098263	0
1	7545	12013.401388640635	0
1	7547	12013.57176672429	0
1	7549	12016.790192474891	0
1	7551	12017.493245320955	0
1	7554	12022.985013899814	0
1	7557	12024.206098865854	0
1	7560	12025.39117585715	0
1	7562	12026.667405024444	0
1	7564	12030.430901171958	0
1	7567	12030.50238601964	0
1	7570	12034.649456582256	0
1	7573	12036.908344571631	1
1	7575	12037.676692848413	2
1	7577	12037.791696261633	1
1	7580	12044.455034505127	0
1	7583	12053.957470290512	0
1	7585	12060.399872790931	0
1	7588	12062.800297883974	1
1	7590	12072.741532013065	0
1	7593	12074.017171069837	0
1	7595	12078.367002137148	0
1	7597	12079.484097393735	0
1	7599	12092.946003266812	0
1	7602	12098.478337706964	0
1	7604	12098.861793035635	0
1	7606	12108.122560879298	0
1	7609	12108.958099297249	0
1	7611	12110.356875438259	0
1	7613	12117.933507123637	0
1	7615	12118.891840915787	0
1	7618	12120.955423822664	0
1	7620	12127.206609161853	0
1	7622	12133.329896701806	0
1	7625	12134.784878366549	0
1	7628	12142.867397514566	0
1	7630	12158.623795324683	0
1	7633	12159.359629573501	0
1	7635	12163.190343127422	0
1	7638	12167.327546591711	0
1	7640	12175.439206370653	0
1	7643	12179.768233575496	0
1	7646	12180.376614607366	0
1	7649	12199.808775990254	0
1	7652	12201.152162945539	0
1	7655	12202.102915283701	0
1	7657	12211.339842000747	0
1	7660	12215.548646496583	0
1	7663	12218.523718697526	1
1	7665	12222.712818294274	2
1	7667	12225.282007106408	3
1	7669	12227.846612236114	2
1	7672	12233.871893231191	1
1	7675	12245.034530697417	0
1	7678	12253.902139946291	0
1	7680	12257.828836499942	0
1	7682	12273.397814346889	0
1	7684	12277.649293450334	0
1	7686	12278.836383586417	0
1	7688	12287.954659755573	0
1	7690	12295.228002516655	0
1	7692	12299.860815183299	0
1	7695	12301.774393677816	0
1	7698	12303.121800221079	0
1	7701	12307.742248813375	0
1	7704	12308.212468446597	0
1	7706	12314.2897427753	0
1	7708	12329.561461092484	0
1	7711	12333.053176828303	0
1	7713	12333.741220708975	0
1	7715	12334.635584211785	0
1	7718	12337.901012355807	0
1	7721	12338.329251344537	0
1	7724	12344.96320352165	0
1	7727	12346.304809966933	0
1	7730	12348.456870608171	0
1	7732	12348.91020354587	0
1	7734	12350.055194595179	0
1	7737	12363.580636407509	0
1	7739	12367.452760872366	0
1	7742	12367.625613133182	0
1	7744	12370.605848932617	0
1	7746	12379.211499178423	0
1	7748	12380.705825991947	0
1	7751	12387.5523850625	0
1	7753	12388.449111643516	0
1	7755	12391.419237146071	0
1	7758	12393.286601650328	0
1	7761	12397.231163143957	0
1	7764	12398.924959977066	0
1	7767	12400.634346699671	0
1	7770	12402.517901429656	0
1	7772	12402.859841115307	0
1	7775	12406.111440729638	0
1	7777	12411.497221438881	0
1	7779	12413.821914187827	0
1	7781	12418.705015010424	0
1	7784	12419.83166561246	0
1	7787	12438.454052590959	0
1	7790	12440.625824997056	0
1	7792	12440.842412816629	0
1	7794	12442.202632969347	0
1	7796	12442.928750239426	0
1	7798	12451.842445354755	0
1	7800	12458.188260560581	0
1	7803	12465.628593827327	0
1	7806	12466.792116938312	0
1	7809	12476.260840644737	0
1	7811	12482.451671575083	0
1	7814	12482.710936979396	0
1	7817	12491.846075458905	0
1	7819	12501.033340540927	0
1	7822	12501.41524015576	0
1	7825	12504.721800837864	0
1	7827	12506.831226776734	0
1	7829	12511.75777963996	0
1	7831	12514.098413648976	0
1	7834	12520.552162472336	0
1	7836	12520.785504070915	0
1	7838	12524.895055913476	0
1	7840	12525.269242523073	0
1	7843	12531.404185501771	0
1	7845	12546.482876058164	0
1	7848	12549.735597883711	0
1	7851	12549.965926173217	0
1	7854	12556.537632159492	0
1	7857	12558.017621968254	0
1	7860	12566.775819238721	0
1	7862	12580.080096170642	0
1	7865	12580.772110470547	0
1	7868	12584.326782880797	0
1	7870	12584.440387518026	0
1	7872	12586.324960199785	0
1	7875	12592.359100701319	0
1	7877	12594.921937465744	0
1	7880	12595.745083360855	0
1	7883	12609.829894013032	1
1	7885	12611.133506651128	0
1	7888	12613.912238179455	0
1	7890	12620.892180328952	0
1	7892	12628.405580584197	0
1	7894	12632.024193682551	0
1	7897	12633.135345759419	0
1	7899	12633.423634989277	0
1	7901	12634.911385745041	0
1	7904	12638.22838854656	0
1	7906	12640.462846603932	0
1	7909	12640.526299720894	0
1	7911	12646.565641043781	0
1	7914	12648.78251115825	0
1	7917	12651.369703806855	0
1	7919	12654.075532551362	0
1	7921	12657.145673605338	0
1	7923	12657.260349666955	0
1	7926	12660.770520358119	0
1	7929	12664.069470516749	0
1	7931	12668.192241785686	0
1	7934	12678.289464296395	0
1	7937	12692.484774916654	0
1	7940	12700.45577392741	0
1	7943	12701.369594056831	0
1	7945	12704.971827011716	0
1	7948	12705.606371314128	1
1	7950	12708.478272017135	0
1	7953	12709.332488769023	1
1	7955	12712.892740629509	0
1	7958	12714.339721021051	1
1	7960	12724.272062967666	0
1	7963	12727.047587335609	1
1	7965	12728.694679551593	0
1	7968	12731.697557177345	1
1	7970	12732.646031951082	0
1	7973	12735.465248113425	1
1	7975	12735.805548555622	2
1	7977	12740.062420894212	1
1	7980	12745.37148898381	0
1	7983	12748.651118965579	0
1	7985	12749.056150870676	0
1	7988	12750.537292923512	1
1	7990	12752.815933218529	2
1	7992	12758.198849050822	3
1	7994	12763.038197168413	2
1	7997	12763.594974407257	1
1	8000	12767.744566071943	0
1	8003	12769.981292156136	1
1	8005	12772.317629276684	0
1	8008	12773.805150672387	0
1	8010	12791.722680653488	0
1	8013	12793.96254601128	0
1	8015	12794.010082046537	0
1	8018	12796.245494399827	1
1	8020	12800.175527900282	2
1	8022	12804.699226897483	1
1	8025	12814.237175435964	2
1	8027	12816.758287169787	1
1	8030	12819.253502233346	0
1	8033	12821.984119408318	0
1	8035	12827.660509153378	0
1	8037	12832.742656084348	0
1	8039	12835.552095198994	0
1	8042	12836.492947749636	0
1	8045	12839.086474173976	0
1	8048	12842.307237357883	0
1	8050	12845.180952717671	0
1	8052	12846.364221793276	0
1	8054	12850.952898388166	0
1	8056	12852.857592038737	0
1	8059	12853.523258119698	0
1	8062	12857.247587278332	0
1	8065	12858.229489556945	0
1	8068	12859.850542889713	1
1	8070	12864.915786381031	2
1	8072	12865.214814859017	1
1	8075	12870.039324430201	2
1	8077	12872.911773559824	1
1	8080	12873.828523916962	0
1	8083	12874.30659286197	0
1	8085	12874.893463447182	0
1	8088	12876.667003991702	1
1	8090	12879.646465420498	0
1	8093	12882.525129339319	0
1	8095	12890.840208577075	0
1	8098	12892.854128046219	1
1	8100	12897.877327556653	0
1	8103	12899.855549052268	1
1	8105	12907.7703762664	2
1	8107	12913.605734557963	1
1	8110	12919.161755447052	0
1	8113	12943.547277893825	1
1	8115	12948.765882691393	2
1	8117	12949.457028311964	1
1	8120	12952.838198150921	0
1	8123	12953.600590738855	0
1	8125	12961.837891542759	0
1	8127	12963.437438085775	0
1	8130	12964.908325119542	0
1	8133	12967.88018087061	1
1	8135	12975.449125917969	2
1	8137	12979.379367646078	1
1	8140	12980.180321415872	0
1	8143	12984.447399517587	0
1	8145	12985.364760787892	0
1	8147	12988.430850665044	0
1	8150	12989.973752282034	0
1	8152	12990.193903372019	0
1	8154	12990.53463784776	0
1	8156	12990.542940616508	0
1	8159	13017.366381426718	0
1	8162	13017.3991986447	0
1	8165	13020.628972474185	0
1	8167	13022.533553088072	0
1	8170	13027.118210468368	0
1	8172	13029.836029533625	0
1	8174	13036.410286853843	0
1	8176	13039.233720968411	0
1	8178	13040.204473982061	0
1	8181	13042.922842282313	0
1	8183	13043.404490614439	0
1	8186	13046.704464080878	0
1	8188	13051.121045771327	0
1	8191	13057.876437436897	0
1	8194	13059.452322023316	0
1	8197	13061.192828309197	0
1	8200	13066.242078356618	0
1	8202	13067.518486956275	0
1	8205	13069.144999755329	0
1	8207	13075.654487059032	0
1	8209	13076.348439741084	0
1	8211	13076.712039487457	0
1	8214	13087.873792294607	0
1	8217	13089.864970592753	0
1	8219	13106.962328066674	0
1	8222	13109.625870847686	0
1	8224	13110.194049795811	0
1	8227	13110.666111767032	0
1	8230	13118.289940141858	0
1	8233	13120.912587626849	0
1	8235	13122.505832406761	0
1	8237	13129.274664960598	0
1	8239	13140.178270587714	0
1	8242	13140.453250836759	0
1	8244	13141.903791871677	0
1	8246	13146.738659699747	0
1	8249	13149.784389326691	0
1	8251	13150.008176545405	0
1	8254	13160.02839355366	0
1	8256	13165.879684226563	0
1	8258	13192.730877776287	0
1	8261	13201.318330854923	0
1	8264	13202.398593440504	0
1	8267	13209.673949617516	0
1	8269	13212.354837182299	0
1	8272	13212.732467828058	0
1	8274	13216.501567586365	0
1	8277	13219.788960380461	0
1	8280	13223.557240459311	0
1	8283	13227.226731250151	0
1	8285	13227.786742655026	0
1	8288	13234.386788233431	0
1	8290	13238.259961578159	0
1	8292	13242.025827758755	0
1	8295	13249.557102011926	0
1	8297	13250.5699174768	0
1	8300	13252.308904852781	0
1	8302	13253.29055624005	0
1	8304	13253.574899303807	0
1	8307	13254.35395203276	0
1	8309	13255.582419004927	0
1	8311	13256.401607670395	0
1	8313	13262.517836326408	0
1	8316	13273.620993751839	0
1	8318	13279.90237513925	0
1	8320	13293.263301937451	0
1	8323	13293.627336738809	0
1	8326	13298.190679004606	0
1	8329	13303.263985755604	0
1	8332	13313.156629344545	0
1	8335	13313.274113100299	0
1	8337	13313.63962049975	0
1	8340	13317.057066681241	0
1	8342	13320.632292929322	0
1	8345	13322.442430982216	0
1	8348	13328.910963661406	0
1	8350	13336.867068536664	0
1	8352	13337.287627609551	0
1	8354	13341.004779861739	0
1	8357	13344.165801344797	0
1	8359	13345.855220806585	0
1	8362	13348.74253887811	0
1	8364	13352.328459434694	0
1	8367	13353.223681644864	0
1	8369	13353.956531574567	0
1	8372	13357.186503696281	0
1	8374	13358.907240545313	0
1	8377	13360.68913149139	0
1	8380	13368.806654453493	0
1	8382	13380.386927487203	0
1	8385	13380.655005523891	0
1	8388	13381.250406408531	0
1	8390	13382.059323533238	0
1	8393	13382.211654155799	1
1	8395	13383.49984778116	0
1	8398	13384.291656570446	1
1	8400	13384.875195523906	0
1	8403	13390.658623015183	1
1	8405	13392.036496478927	0
1	8408	13392.552346523038	0
1	8410	13396.796003672114	0
1	8412	13399.065365626091	0
1	8415	13399.539240010004	0
1	8417	13400.615800228871	0
1	8419	13405.406399169629	0
1	8422	13406.849823496559	0
1	8424	13406.857839916178	0
1	8427	13408.89317419377	0
1	8429	13417.948262382189	0
1	8432	13424.751658914929	0
1	8435	13427.581870189091	0
1	8438	13430.96769430304	0
1	8440	13433.040377668737	0
1	8443	13434.198617990897	0
1	8445	13436.585493822696	0
1	8447	13436.856477657817	0
1	8449	13438.143390721223	0
1	8451	13443.234477653957	0
1	8454	13452.941894200421	0
1	8457	13459.150758813939	0
1	8460	13460.575084447707	0
1	8462	13468.539647616499	0
1	8464	13472.871416080314	0
1	8466	13482.974369786552	0
1	8469	13484.842810533521	0
1	8471	13487.27190240237	0
1	8473	13487.41462952847	0
1	8475	13494.446852935465	0
1	8478	13498.583319097481	0
1	8480	13502.644847609264	0
1	8483	13504.369729762112	0
1	8486	13507.327820401182	0
1	8489	13507.519168579063	0
1	8491	13510.789276696447	0
1	8493	13518.350003735787	0
1	8496	13522.199752179894	0
1	8499	13531.812383698756	0
1	8501	13539.117525582278	0
1	8504	13558.435168030411	0
1	8507	13565.546598428222	0
1	8510	13565.623639226789	0
1	8512	13567.979712995235	0
1	8515	13568.891760610844	0
1	8518	13572.502960220956	0
1	8520	13573.230964939587	0
1	8523	13574.168378748275	1
1	8525	13584.471138953692	2
1	8527	13589.677447001376	3
1	8529	13600.401429660112	2
1	8532	13602.199717222445	1
1	8535	13604.591377304642	0
1	8538	13610.105046872128	0
1	8540	13614.744031044257	0
1	8542	13621.479633689191	0
1	8544	13624.64951227801	0
1	8546	13635.865823147073	0
1	8548	13641.040105634889	0
1	8551	13641.313524684291	0
1	8554	13647.425381591639	0
1	8557	13648.312195149056	0
1	8559	13650.22595775893	0
1	8561	13661.673068319233	0
1	8564	13663.374664788862	0
1	8566	13665.926090624303	0
1	8568	13668.538207450765	0
1	8571	13670.808143990147	0
1	8574	13675.029003124068	0
1	8577	13675.744131765797	0
1	8580	13676.216529660124	0
1	8582	13677.42288801103	0
1	8584	13679.585346381935	0
1	8587	13683.028883341591	0
1	8589	13689.171809745734	0
1	8591	13690.93158634045	0
1	8594	13691.159989602591	0
1	8597	13694.211742980474	0
1	8599	13701.536748338227	0
1	8602	13704.114797139919	0
1	8605	13710.624392736729	0
1	8607	13714.71342526766	0
1	8610	13718.745686900213	0
1	8613	13720.373091114629	0
1	8615	13726.279349308184	0
1	8617	13729.530754212935	0
1	8620	13732.452680707167	0
1	8622	13740.55576288549	0
1	8624	13749.004055592386	0
1	8627	13749.824988692529	0
1	8629	13762.761654841326	0
1	8631	13762.931904398691	0
1	8634	13763.73956159628	0
1	8637	13764.203254753305	0
1	8639	13774.306444476712	0
1	8641	13782.732213772146	0
1	8643	13783.956705532609	0
1	8646	13787.279092190771	0
1	8649	13789.075148965112	0
1	8651	13790.566130620001	0
1	8653	13794.324383300641	0
1	8656	13798.945773969611	0
1	8659	13800.404622565127	0
1	8662	13801.837618744702	0
1	8664	13802.516707562948	0
1	8666	13804.369580325506	0
1	8669	13806.051308910825	0
1	8671	13807.206969142212	0
1	8673	13811.065272683666	0
1	8676	13819.054551845884	0
1	8679	13824.440061609284	0
1	8682	13834.574836715255	0
1	8685	13835.1784150792	0
1	8687	13837.275735026484	0
1	8689	13838.454120051791	0
1	8692	13841.062346871185	0
1	8694	13841.459487313764	0
1	8697	13843.816924870741	0
1	8700	13849.498794449818	0
1	8702	13857.512494333082	0
1	8705	13869.284687269469	0
1	8708	13870.76537403886	0
1	8710	13873.384120165619	0
1	8713	13882.395154000901	1
1	8715	13883.456187079308	2
1	8717	13883.877474812234	1
1	8720	13890.90401617926	0
1	8723	13891.336583933228	1
1	8725	13901.119021879794	2
1	8727	13905.787232057018	3
1	8729	13907.255784273668	4
1	8731	13911.390345810315	5
1	8733	13912.020589281325	4
1	8736	13912.877971014356	3
1	8739	13913.767285615134	2
1	8742	13918.72218005927	1
1	8745	13918.873514739249	2
1	8747	13921.451014775953	1
1	8750	13922.994495628552	0
1	8753	13932.302983841547	0
1	8755	13934.805771579536	0
1	8758	13939.675709617132	0
1	8760	13941.858365883408	0
1	8763	13944.178268373572	0
1	8765	13944.545827468921	0
1	8767	13952.323810348529	0
1	8769	13954.464973228149	0
1	8771	13957.001867085808	0
1	8773	13958.008392571412	0
1	8776	13967.978605136854	0
1	8779	13982.274252973894	0
1	8781	13988.113924731554	0
1	8783	13995.335083220342	0
1	8786	13995.390594851991	0
1	8788	13998.677094521457	0
1	8791	14002.681667426536	0
1	8794	14003.530100547724	0
1	8797	14011.229949342144	0
1	8799	14019.178145964936	0
1	8801	14020.654078836719	0
1	8804	14021.335898669499	0
1	8807	14024.679898779856	0
1	8810	14025.016136423899	0
1	8812	14025.669000319756	0
1	8815	14042.845933539724	0
1	8818	14044.731528188219	0
1	8820	14044.945628188989	0
1	8822	14047.79743158769	0
1	8824	14054.296942754035	0
1	8826	14061.674358498142	0
1	8829	14066.381376577916	0
1	8831	14069.55465887856	0
1	8834	14070.245222803859	0
1	8836	14080.386513430622	0
1	8838	14082.619604536451	0
1	8841	14094.056808084748	0
1	8844	14095.726738612382	0
1	8847	14096.460147299639	0
1	8849	14097.347452402055	0
1	8852	14111.56662192452	0
1	8855	14115.149639953742	0
1	8858	14117.15605427074	1
1	8860	14117.783910332882	2
1	8862	14120.446511336008	3
1	8864	14122.14633275346	2
1	8867	14128.183095613006	1
1	8870	14128.425020140121	0
1	8873	14129.286381812725	1
1	8875	14131.073480136806	0
1	8878	14132.524937385498	0
1	8880	14133.90206745332	0
1	8882	14141.967472982921	0
1	8885	14144.085127186138	0
1	8887	14155.466857828515	0
1	8890	14162.573477122728	0
1	8893	14168.343386073596	0
1	8895	14169.365019904405	0
1	8897	14176.273484072132	0
1	8900	14185.382507030695	0
1	8902	14188.769970486969	0
1	8904	14192.277352250023	0
1	8907	14195.42873934161	0
1	8910	14198.603790378159	0
1	8913	14199.643969199651	0
1	8915	14201.2771499051	0
1	8917	14213.002487941948	0
1	8920	14218.71183936228	0
1	8922	14227.880564469252	0
1	8925	14231.090248445055	0
1	8928	14235.470788863313	1
1	8930	14240.609822628845	0
1	8933	14245.107777750565	0
1	8935	14248.609521984175	0
1	8937	14267.127258777059	0
1	8940	14281.316265539657	0
1	8942	14285.83739369642	0
1	8944	14286.953552273438	0
1	8946	14287.868145887578	0
1	8948	14291.149497737474	0
1	8950	14300.347630072054	0
1	8953	14320.481322827786	0
1	8955	14347.058711248394	0
1	8958	14349.419182097464	0
1	8961	14353.492825169545	0
1	8964	14361.963613210522	0
1	8967	14362.772245160941	0
1	8969	14369.071081854912	0
1	8972	14372.859371613387	0
1	8975	14377.133830908828	0
1	8978	14378.008534284885	0
1	8980	14384.301188378162	0
1	8982	14390.26793322602	0
1	8984	14399.356248672803	0

