version 2
run POLICY_1-23-20191213-12:40:10-1218
attr configname POLICY_1
attr datetime 20191213-12:40:10
attr experiment POLICY_1
attr inifile omnetpp.ini
attr iterationvars ""
attr iterationvarsf ""
attr measurement ""
attr network Carrefour
attr processid 1218
attr repetition 23
attr replication #23
attr resultdir results
attr runnumber 23
attr seedset 23
param **.policy 1
param **.delta 0s
param **.tillsNumber 7
param **.capacity 0.3
param **.meanInterArrivalTime 8s
param **.meanItemsInACart 12
param **.interArrivalDistribution 0
param **.itemsInCartDistribution 0

vector 0 Carrefour.decider stats_numCustomers:vector ETV
attr "" ""
attr source numCustomers
vector 1 Carrefour.decider stats_numCustomersQueue:vector ETV
attr "" ""
attr source numCustomersQueue
0	790	1203.189748239408	9
0	792	1203.956727320105	8
0	795	1205.002046659678	7
0	798	1205.343178665343	8
0	800	1212.135435682267	9
0	802	1212.544684372708	8
0	805	1218.99233204891	7
0	808	1221.686549171775	8
0	810	1227.836559121911	7
0	813	1235.002491184144	8
0	815	1236.640178890739	7
0	818	1238.070703713118	8
0	820	1242.274312964623	7
0	823	1243.098323789675	8
0	825	1245.477245425915	9
0	827	1245.843995198056	8
0	830	1246.735520554591	7
0	833	1248.779111427135	6
0	835	1249.400823597025	5
0	837	1253.308780735909	6
0	840	1264.435248024169	7
0	843	1270.9607976129	8
0	845	1273.535473355463	7
0	848	1288.422296302685	8
0	850	1291.653093685971	9
0	852	1294.16585977397	10
0	854	1295.34657815613	11
0	856	1297.591497594709	10
0	859	1298.924722537726	9
0	862	1299.471614635235	8
0	865	1299.980763306758	7
0	868	1301.836271815734	8
0	870	1302.678598819291	7
0	873	1303.927277615859	6
0	875	1309.250568135475	5
0	877	1309.4027680572	4
0	879	1320.595372456696	5
0	882	1323.15306167823	4
0	884	1331.150936580598	3
0	886	1333.127396358869	4
0	889	1335.205541456504	5
0	892	1347.796884151451	4
0	894	1356.567371957028	3
0	896	1356.664054616189	2
0	898	1364.640848346245	1
0	900	1372.015822570381	2
0	903	1373.925897771096	3
0	906	1376.030412912967	4
0	909	1377.596427876138	5
0	912	1397.175022823132	4
0	914	1399.510964210507	5
0	917	1401.700487596325	4
0	919	1408.030702429445	5
0	922	1408.817706334405	4
0	924	1409.816271873568	5
0	927	1410.235375438942	6
0	930	1413.096021191188	5
0	932	1414.749816548141	6
0	935	1415.517319484393	7
0	938	1419.172099510947	6
0	940	1426.767448421599	7
0	943	1429.800925611077	6
0	945	1432.012001987037	5
0	947	1432.67643324701	4
0	949	1436.448867886752	5
0	952	1445.410370643293	4
0	954	1446.208791336763	5
0	957	1453.552502951693	4
0	959	1456.537682150185	5
0	962	1464.181856845905	6
0	965	1468.536777978772	5
0	967	1469.982032377992	6
0	970	1477.090781383594	5
0	972	1477.566572571586	6
0	975	1480.422613488918	5
0	977	1483.523222078658	4
0	979	1486.17516425359	5
0	982	1488.500000236461	6
0	985	1490.070427649109	5
0	987	1491.474371695451	6
0	990	1493.538842262611	7
0	993	1494.195288311209	8
0	995	1501.292401929159	9
0	997	1507.68206112846	8
0	1000	1511.329932185381	9
0	1002	1519.70562655285	10
0	1004	1524.051814800097	9
0	1007	1525.523567976461	8
0	1010	1529.989958035289	9
0	1012	1531.760106996856	8
0	1015	1533.383869526382	7
0	1018	1539.851817174554	8
0	1020	1540.039527958253	9
0	1022	1541.285712078036	10
0	1024	1542.33515173317	11
0	1026	1542.94426916487	12
0	1028	1546.880475441493	11
0	1031	1547.710075064538	12
0	1033	1548.461433583722	11
0	1036	1554.55659848847	12
0	1038	1557.117609719529	11
0	1041	1557.628879088753	12
0	1043	1570.131441969469	13
0	1045	1575.462335282842	14
0	1047	1588.38820229696	13
0	1050	1589.957183422062	12
0	1053	1599.076507082899	13
0	1055	1599.137630177976	14
0	1057	1600.873420883877	15
0	1059	1605.219139533324	16
0	1061	1607.298945541644	15
0	1064	1615.054903905728	16
0	1066	1619.552951439525	17
0	1068	1620.921892218	18
0	1070	1623.197990876306	17
0	1073	1630.242632690207	16
0	1076	1633.31565854157	17
0	1078	1633.650265298883	16
0	1081	1634.997508917223	15
0	1084	1636.333668481068	14
0	1087	1638.554631377632	15
0	1089	1640.748567138532	16
0	1091	1645.097265408631	15
0	1094	1650.548316696245	14
0	1097	1653.553347587622	13
0	1100	1656.610275885141	12
0	1103	1657.96132291492	11
0	1106	1658.150623372362	12
0	1108	1660.005552935371	13
0	1110	1660.295831658829	14
0	1112	1660.993519706922	15
0	1114	1663.780978654519	16
0	1116	1663.886726860344	17
0	1118	1665.975490773091	18
0	1120	1672.076390709597	17
0	1123	1673.822013304142	16
0	1126	1674.324281202421	15
0	1129	1674.45847634179	14
0	1132	1674.527018054847	13
0	1135	1674.715742082523	14
0	1137	1676.944970773943	13
0	1140	1678.667705821686	12
0	1143	1693.410184781773	11
0	1146	1695.248178336139	10
0	1149	1695.268825909124	11
0	1151	1695.615829934154	10
0	1154	1698.548491713142	11
0	1156	1705.910895151524	12
0	1158	1712.359272915766	11
0	1161	1716.67450910923	10
0	1164	1721.312656576636	9
0	1167	1726.060139444325	8
0	1170	1728.787142378246	9
0	1172	1729.633034856872	10
0	1174	1729.988995827417	9
0	1177	1736.865838504942	10
0	1179	1741.502813636918	11
0	1181	1744.971648182842	12
0	1183	1745.666982282374	11
0	1186	1745.705173931316	10
0	1189	1751.83359498149	9
0	1192	1755.344818908134	10
0	1194	1763.658831542941	9
0	1197	1767.594328922901	10
0	1199	1769.667378215254	9
0	1202	1771.14012026529	10
0	1204	1773.221409091984	9
0	1207	1779.819241674258	8
0	1210	1786.200872331765	9
0	1212	1796.927122153793	10
0	1214	1798.00536158981	11
0	1216	1800.530914278371	12
0	1218	1813.381503873643	11
0	1221	1815.578352819489	12
0	1223	1816.13414548773	13
0	1225	1816.704253672461	12
0	1228	1817.676281855628	13
0	1230	1821.94676884072	12
0	1233	1822.567790918931	11
0	1236	1823.691011187147	10
0	1239	1823.85501168989	9
0	1242	1824.604734759155	8
0	1245	1824.901037643672	9
0	1247	1826.178001352096	8
0	1250	1829.28025506806	7
0	1253	1829.429261654163	6
0	1255	1831.07072724899	5
0	1257	1836.887020307728	4
0	1259	1855.708287045442	5
0	1262	1860.117021717597	6
0	1265	1861.358979031021	7
0	1268	1865.771677080098	8
0	1270	1866.723914681893	9
0	1272	1875.126285578902	8
0	1275	1875.442251026962	7
0	1278	1875.947027402612	6
0	1280	1877.207626485442	5
0	1282	1889.44867885632	6
0	1285	1893.396757534084	5
0	1287	1896.012637813524	4
0	1289	1896.180046364784	3
0	1291	1896.26635033048	4
0	1294	1907.523540859566	3
0	1296	1907.614428643005	4
0	1299	1916.30225963994	3
0	1301	1916.628321453945	2
0	1303	1936.549397548056	1
0	1305	1938.281661526511	0
0	1307	1957.391327277674	1
0	1310	1968.786017194837	2
0	1313	1968.796083983458	3
0	1316	1976.474011344024	2
0	1318	1979.15758943666	3
0	1321	1979.815268948589	4
0	1324	1982.571359015456	5
0	1327	1982.592973029383	6
0	1330	1985.562840068976	5
0	1332	1985.976892972736	6
0	1335	1986.566298849903	7
0	1338	1990.422517708394	8
0	1340	1993.732057111514	9
0	1342	1993.759343066764	10
0	1344	1996.809356073197	11
0	1346	1997.88769575893	10
0	1349	2001.258026881112	9
0	1352	2002.874393839217	10
0	1354	2005.157591873323	9
0	1357	2008.868281155019	10
0	1359	2016.159446037024	9
0	1362	2029.572768816063	10
0	1364	2032.445013054025	11
0	1366	2032.52312496617	10
0	1369	2045.798220902169	9
0	1372	2046.922878465529	8
0	1375	2047.588769977338	9
0	1377	2057.487976927573	10
0	1379	2059.709865321958	9
0	1382	2060.439274921342	10
0	1384	2061.634656117813	9
0	1387	2062.641271783635	10
0	1389	2067.448636275032	11
0	1391	2067.475880549785	10
0	1394	2068.760910013144	11
0	1396	2072.244547809286	12
0	1398	2073.997289653862	11
0	1401	2096.912694899994	10
0	1404	2124.810145207939	11
0	1406	2125.251653441593	10
0	1409	2129.35967185417	9
0	1412	2129.654261041314	10
0	1414	2134.116978354865	9
0	1417	2138.771588275017	8
0	1420	2146.403329034773	9
0	1422	2147.760143224968	8
0	1425	2155.211942640819	7
0	1428	2155.336422686899	6
0	1430	2157.16924686523	5
0	1432	2159.122936347823	4
0	1434	2159.319644763596	5
0	1437	2159.9596901378	6
0	1440	2172.148231727666	7
0	1443	2174.826322241759	8
0	1445	2177.858669335053	7
0	1448	2178.09401688805	8
0	1450	2179.082648661829	9
0	1452	2187.804870266874	8
0	1455	2189.308683754573	7
0	1458	2194.669836010207	8
0	1460	2208.440893490972	9
0	1462	2211.055492587581	8
0	1465	2214.308000034079	9
0	1467	2215.186772346625	10
0	1469	2222.345322143337	9
0	1472	2223.966516178228	8
0	1475	2225.16680265215	7
0	1478	2234.139221341361	8
0	1480	2235.245916193472	9
0	1482	2237.216776412271	8
0	1485	2237.593198433999	7
0	1488	2238.726762073107	6
0	1490	2242.541955483221	7
0	1493	2243.07845374118	8
0	1495	2249.571131061088	9
0	1497	2259.333681786195	10
0	1499	2259.342078055064	9
0	1502	2267.163774702607	10
0	1504	2267.787191331348	9
0	1507	2272.416346942584	10
0	1509	2272.421306121764	11
0	1511	2273.344441941158	10
0	1514	2273.909516595732	9
0	1517	2281.244184159721	10
0	1519	2292.594264922325	9
0	1522	2295.349649230007	8
0	1525	2297.609944598397	9
0	1527	2300.04433710517	8
0	1530	2300.658737951402	9
0	1532	2303.73872527554	8
0	1535	2304.649762880079	9
0	1537	2307.866123602388	8
0	1540	2309.447112451063	7
0	1543	2310.286022458313	6
0	1545	2310.625995438681	7
0	1548	2314.861560944447	6
0	1550	2320.949834403495	5
0	1552	2323.341696555597	4
0	1554	2326.538441875507	3
0	1556	2328.429495302611	2
0	1558	2331.820170454758	3
0	1561	2332.486216565778	4
0	1564	2337.617509985444	3
0	1566	2342.57274488321	2
0	1568	2347.400909531638	1
0	1570	2371.047399094891	2
0	1573	2376.195057281727	3
0	1576	2377.319383768237	2
0	1578	2379.436420004509	3
0	1581	2388.393788503428	2
0	1583	2395.214816615188	1
0	1585	2427.829905687361	0
0	1587	2439.125761815785	1
0	1590	2440.3138242848	0
0	1592	2461.148117020764	1
0	1595	2478.796403471097	2
0	1598	2484.412107516239	3
0	1601	2485.301256408979	2
0	1603	2490.246027216294	3
0	1606	2491.141474370743	2
0	1608	2492.800832046773	3
0	1611	2501.080507399777	2
0	1613	2502.052446413543	3
0	1616	2505.429431219089	4
0	1619	2510.360517839985	3
0	1621	2516.024823787311	4
0	1624	2516.960507767082	3
0	1626	2521.868478616401	4
0	1629	2526.97283487819	3
0	1631	2530.300890060757	4
0	1634	2530.399069783036	3
0	1636	2531.125647402935	4
0	1639	2535.94903467484	5
0	1642	2536.381790014848	6
0	1645	2542.756047100318	7
0	1648	2546.301282776127	6
0	1650	2549.936789050477	5
0	1652	2551.536190098098	4
0	1654	2553.83257769107	3
0	1656	2553.996705114888	4
0	1659	2558.779919322023	3
0	1661	2568.591785070106	4
0	1664	2569.005834950706	5
0	1667	2577.517962993433	4
0	1669	2582.120983537412	5
0	1672	2585.697100412581	4
0	1674	2585.79109210717	3
0	1676	2587.742893551398	4
0	1679	2591.419246029522	5
0	1682	2591.636052706767	6
0	1685	2605.562101257872	7
0	1688	2607.174853523486	6
0	1690	2608.117540598168	5
0	1692	2610.219030772986	6
0	1695	2611.876418064531	5
0	1697	2617.273902131692	6
0	1700	2619.488119998798	5
0	1702	2625.260871058781	6
0	1705	2625.445147778701	7
0	1708	2627.693316615869	6
0	1710	2629.757254334665	7
0	1713	2630.314664967617	8
0	1715	2630.487497309339	9
0	1717	2632.771897308623	10
0	1719	2632.977672508233	9
0	1722	2636.742907262421	8
0	1725	2637.165233475686	9
0	1727	2638.396499808979	8
0	1730	2640.601343151904	7
0	1733	2640.706669417696	6
0	1735	2652.279558235656	5
0	1737	2657.097415294678	4
0	1739	2658.259062387832	5
0	1742	2661.449860154145	4
0	1744	2663.254293052931	5
0	1747	2683.632166949741	6
0	1750	2685.587666126704	7
0	1753	2693.203457004234	6
0	1755	2695.828852073824	5
0	1757	2698.05107660442	6
0	1760	2701.461650692008	5
0	1762	2705.418132340121	6
0	1765	2707.671297593603	5
0	1767	2708.800871856262	4
0	1769	2713.940965975624	3
0	1771	2716.788631533774	4
0	1774	2719.34956208639	5
0	1777	2719.780309814765	4
0	1779	2724.073580633813	5
0	1782	2728.283528987531	6
0	1785	2731.173456627616	7
0	1788	2735.064297153976	8
0	1790	2735.336189115141	9
0	1792	2742.713940503941	10
0	1794	2743.593441434197	9
0	1797	2748.38392851673	8
0	1800	2749.866005339568	7
0	1803	2750.296898613849	8
0	1805	2750.8202264361	7
0	1808	2752.552107410612	8
0	1810	2760.248951073459	9
0	1812	2768.002615923341	10
0	1814	2768.356563193585	9
0	1817	2779.246809530133	8
0	1820	2779.870823988199	9
0	1822	2785.622994425381	10
0	1824	2787.502637474435	11
0	1826	2787.759307092377	12
0	1828	2789.136295266128	13
0	1830	2789.524712064432	14
0	1832	2798.270180099391	13
0	1835	2799.870610407413	14
0	1837	2800.699768217317	15
0	1839	2805.166069463317	14
0	1842	2808.243886326817	13
0	1845	2808.524914687119	14
0	1847	2819.319770687052	15
0	1849	2820.021881179195	16
0	1851	2820.474006579744	15
0	1854	2835.992777667594	14
0	1857	2838.496514032317	15
0	1859	2844.397558049181	16
0	1861	2847.735083528371	15
0	1864	2848.21777738036	14
0	1867	2848.442220972729	15
0	1869	2848.566696457642	14
0	1872	2858.178601519407	13
0	1875	2863.986008941116	12
0	1878	2865.184869934628	13
0	1880	2868.024062062081	14
0	1882	2868.082348701401	15
0	1884	2869.878982048892	16
0	1886	2873.253942083488	17
0	1888	2875.329842227124	16
0	1891	2878.376454422455	15
0	1894	2878.627544564156	14
0	1897	2879.112103185763	15
0	1899	2885.701058098788	16
0	1901	2885.913327990276	15
0	1904	2886.51004053786	14
0	1907	2886.564973097975	13
0	1910	2896.203082825681	14
0	1912	2898.146946626855	13
0	1915	2907.722844747182	14
0	1917	2909.632925049096	15
0	1919	2911.516268019017	14
0	1922	2912.630383351949	15
0	1924	2914.189641027832	14
0	1927	2916.915496056872	13
0	1930	2919.408005728967	14
0	1932	2926.595788532899	13
0	1935	2928.881884591404	12
0	1938	2931.091858817763	13
0	1940	2932.681417044955	14
0	1942	2935.062228623368	15
0	1944	2941.205974632996	14
0	1947	2941.508267881431	13
0	1950	2948.325367112457	12
0	1953	2949.027140338987	13
0	1955	2949.961139727486	14
0	1957	2950.33580366186	13
0	1960	2951.939207758742	12
0	1963	2953.20372344356	13
0	1965	2955.507488996716	12
0	1968	2961.577536787937	11
0	1971	2966.500801157533	10
0	1974	2966.997121897813	11
0	1976	2971.746839139055	10
0	1979	2972.456239444017	11
0	1981	2978.498229770802	10
0	1984	2979.91723439477	11
0	1986	2980.191547235786	10
0	1989	2985.812653106357	9
0	1992	2994.536011566223	8
0	1995	2999.342138753808	9
0	1997	3006.271067102938	10
0	1999	3009.390037486171	9
0	2002	3014.961608682042	10
0	2004	3015.231649783191	11
0	2006	3016.070045945133	10
0	2009	3017.846029060777	11
0	2011	3022.917232471996	10
0	2014	3033.096613943733	9
0	2017	3037.631408606329	10
0	2019	3040.642645454003	9
0	2022	3043.838758750877	10
0	2024	3048.961759995737	9
0	2027	3055.202964131398	10
0	2029	3055.786786201022	11
0	2031	3060.621196467667	10
0	2034	3063.300027234663	11
0	2036	3064.476745789501	10
0	2039	3065.039780648352	9
0	2042	3072.201771665967	10
0	2044	3073.087020177433	9
0	2047	3075.09715427714	10
0	2049	3077.13112327131	11
0	2051	3085.85262083848	12
0	2053	3091.710935884196	13
0	2055	3095.490126426581	12
0	2058	3096.154462176717	13
0	2060	3106.16445393258	12
0	2063	3108.319443047026	11
0	2066	3109.047136927532	12
0	2068	3110.208809140813	11
0	2071	3115.488922918019	10
0	2074	3123.552590823756	11
0	2076	3124.219803502343	12
0	2078	3126.713100482806	13
0	2080	3128.375392440932	14
0	2082	3132.741342630008	15
0	2084	3137.065467070683	14
0	2087	3142.734687215208	13
0	2090	3143.193807101168	12
0	2093	3145.492361939632	13
0	2095	3151.904013673229	14
0	2097	3152.63063796401	15
0	2099	3153.713355223501	16
0	2101	3153.861118627237	15
0	2104	3157.914464943506	14
0	2107	3163.742663354997	13
0	2110	3166.349650204714	14
0	2112	3173.507327311723	15
0	2114	3177.551761775309	16
0	2116	3179.118262551726	15
0	2119	3181.211388193424	14
0	2122	3181.242184364288	13
0	2125	3184.924220840796	14
0	2127	3189.723161360598	13
0	2130	3193.097725169941	12
0	2133	3196.062295542033	11
0	2136	3203.556328263941	12
0	2138	3204.828229407196	13
0	2140	3205.921727732946	12
0	2143	3206.47235542284	11
0	2146	3208.525328034148	12
0	2148	3214.598544854155	11
0	2151	3216.616974557231	10
0	2154	3220.260838886676	9
0	2157	3220.748006748092	10
0	2159	3223.523665295424	11
0	2161	3223.758665389936	12
0	2163	3225.183764547439	11
0	2166	3225.20482736793	10
0	2169	3226.98442074083	11
0	2171	3232.640414134522	10
0	2174	3232.805813801925	9
0	2177	3237.871639748112	8
0	2180	3240.918114209262	9
0	2182	3249.292547810845	8
0	2185	3251.174508330752	7
0	2188	3258.364279669675	6
0	2190	3258.535145487999	5
0	2192	3266.074343278121	6
0	2195	3267.662793832223	5
0	2197	3271.246484173114	6
0	2200	3272.872432831535	7
0	2203	3278.830987415411	6
0	2205	3282.974608364927	7
0	2208	3289.652627624232	6
0	2210	3290.456513698175	7
0	2213	3291.544420460686	6
0	2215	3294.969407692729	5
0	2217	3299.240958379511	6
0	2220	3301.952240651845	5
0	2222	3302.24416226272	4
0	2224	3305.248381008704	5
0	2227	3309.280514388593	6
0	2230	3313.037893696114	5
0	2232	3313.39221110186	6
0	2235	3315.947982543417	5
0	2237	3316.161705017891	4
0	2239	3323.784380396702	5
0	2242	3329.116134842502	4
0	2244	3333.956106416972	3
0	2246	3340.644415877687	4
0	2249	3341.999610628715	5
0	2252	3347.732016416875	4
0	2254	3347.939223833423	3
0	2256	3351.960714241963	4
0	2259	3357.052824194681	5
0	2262	3365.188023618792	4
0	2264	3387.371151718566	3
0	2266	3391.104900535959	4
0	2269	3391.617694896919	5
0	2272	3402.104631902729	6
0	2275	3403.996954389062	7
0	2278	3404.984086126577	6
0	2280	3408.730622308978	7
0	2283	3410.611672858527	6
0	2285	3411.79532220162	5
0	2287	3414.010015098264	4
0	2289	3418.258946961498	5
0	2292	3421.345973215316	4
0	2294	3425.031412784873	5
0	2297	3425.819904780642	6
0	2300	3437.117104373158	5
0	2302	3439.545894209596	4
0	2304	3454.31877969802	3
0	2306	3469.233484102851	2
0	2308	3475.908113117082	3
0	2311	3489.220243239533	2
0	2313	3493.454360124255	3
0	2316	3498.000197401161	4
0	2319	3520.912140540263	5
0	2322	3521.19074747536	6
0	2325	3522.127343504433	5
0	2327	3528.587915057641	4
0	2329	3530.953867309191	3
0	2331	3531.806500121656	4
0	2334	3532.295989181661	5
0	2337	3537.603065753478	4
0	2339	3541.105516866031	3
0	2341	3547.182993965212	4
0	2344	3559.088922639165	3
0	2346	3564.419367842525	4
0	2349	3564.618836979097	3
0	2351	3565.19283874341	2
0	2353	3570.501695222563	3
0	2356	3575.870088869785	4
0	2359	3581.926051897725	5
0	2362	3583.013897402303	4
0	2364	3586.774482764144	5
0	2367	3588.038149114629	4
0	2369	3588.046982231833	3
0	2371	3593.646968414777	4
0	2374	3601.268084897477	3
0	2376	3601.866227393396	4
0	2379	3606.584421455373	3
0	2381	3614.506064742779	4
0	2384	3615.538437291631	5
0	2387	3616.009171112927	6
0	2390	3616.203355290031	5
0	2392	3617.450242625753	4
0	2394	3620.096828428937	5
0	2397	3624.692943472329	4
0	2399	3624.85320306342	5
0	2402	3631.846625583368	6
0	2405	3632.368025911753	5
0	2407	3641.175791759754	4
0	2409	3643.552657983478	5
0	2412	3646.18278918099	6
0	2415	3661.670953343928	7
0	2418	3664.154123123717	8
0	2420	3666.34831476512	7
0	2423	3682.283740422473	6
0	2425	3685.784716590072	5
0	2427	3687.782032306589	6
0	2430	3691.483453027338	5
0	2432	3697.318614554158	4
0	2434	3699.705581400055	5
0	2437	3703.583200548665	4
0	2439	3704.981381991195	3
0	2441	3708.347279762431	2
0	2443	3709.263194762178	3
0	2446	3714.52265876292	4
0	2449	3719.466631508805	5
0	2452	3720.105769594449	6
0	2455	3723.760704224003	5
0	2457	3727.358997938849	6
0	2460	3730.97793137238	7
0	2463	3736.679496810591	6
0	2465	3741.443197161353	7
0	2468	3754.545597744175	6
0	2470	3755.712338866185	5
0	2472	3762.057075888989	4
0	2474	3762.592761131288	3
0	2476	3768.813855920124	2
0	2478	3775.878831615024	3
0	2481	3776.650624859927	2
0	2483	3780.466176671755	3
0	2486	3781.691912595753	4
0	2489	3782.731413800065	3
0	2491	3783.124479924217	4
0	2494	3783.137703926412	3
0	2496	3785.553613239529	4
0	2499	3786.178807811393	5
0	2502	3790.808887047575	4
0	2504	3792.211508866286	5
0	2507	3802.338893006854	6
0	2510	3804.603396188629	5
0	2512	3808.138747731962	6
0	2515	3812.050343894401	7
0	2518	3819.433735371707	6
0	2520	3819.697819169192	7
0	2523	3822.895787773323	6
0	2525	3824.484910481661	5
0	2527	3825.646431858392	4
0	2529	3839.497580484557	3
0	2531	3841.555708612115	4
0	2534	3849.244056192521	3
0	2536	3850.122366222424	4
0	2539	3850.212878336021	5
0	2542	3864.346504750258	6
0	2545	3867.256510766002	5
0	2547	3871.23399542441	6
0	2550	3877.575002131528	5
0	2552	3885.283030515912	6
0	2555	3889.551763277801	5
0	2557	3903.385785805544	6
0	2560	3905.776654466099	5
0	2562	3910.453494923468	4
0	2564	3914.263377075441	5
0	2567	3916.267863054165	6
0	2570	3923.70220965376	7
0	2573	3926.921966558932	8
0	2575	3927.083982815622	7
0	2578	3933.544042689227	6
0	2580	3942.345064732309	7
0	2583	3947.851703660739	8
0	2585	3950.103550362524	7
0	2588	3955.698578665432	6
0	2590	3955.881219102698	7
0	2593	3959.284446068459	8
0	2595	3961.070861335836	9
0	2597	3968.134014255623	10
0	2599	3968.828771554045	11
0	2601	3972.064679821161	10
0	2604	3973.448748758026	11
0	2606	3976.229245971416	12
0	2608	3976.65597533008	13
0	2610	3987.360878555683	14
0	2612	3990.263163252793	13
0	2615	3990.66454348203	12
0	2618	3991.500691022529	11
0	2621	3992.209756623712	12
0	2623	3992.894802145994	11
0	2626	3995.460073950751	12
0	2628	3996.364422943332	13
0	2630	4009.693450161881	12
0	2633	4016.535883175944	13
0	2635	4022.648250965839	12
0	2638	4025.480236165695	11
0	2641	4026.893408205495	12
0	2643	4029.097456598132	13
0	2645	4038.489061330005	14
0	2647	4040.391776972682	13
0	2650	4043.693871379849	14
0	2652	4044.147253649209	15
0	2654	4047.593018373123	16
0	2656	4049.412915564669	15
0	2659	4062.488381584748	16
0	2661	4066.905949601727	17
0	2663	4067.398667440129	16
0	2666	4072.956331974479	17
0	2668	4073.253172115827	16
0	2671	4079.407170016586	15
0	2674	4085.019808536182	16
0	2676	4085.63635682655	15
0	2679	4087.116529099979	16
0	2681	4090.779455191627	15
0	2684	4092.621852646963	14
0	2687	4094.966429614803	13
0	2690	4098.846097073767	14
0	2692	4102.101555380186	15
0	2694	4110.112754458272	16
0	2696	4113.707729832052	15
0	2699	4116.358130952713	16
0	2701	4123.699950541788	15
0	2704	4129.760840532221	14
0	2707	4135.462327482875	15
0	2709	4136.945242779803	14
0	2712	4146.553107513259	15
0	2714	4148.860266925173	14
0	2717	4148.870873403869	13
0	2720	4149.045334289798	12
0	2723	4151.231862344796	11
0	2726	4158.398019329821	12
0	2728	4159.121553112041	13
0	2730	4165.26179360376	12
0	2733	4165.300494812833	13
0	2735	4170.759941167134	12
0	2738	4173.638892484383	11
0	2741	4174.461991064435	10
0	2744	4175.968391424173	9
0	2747	4179.63934872221	8
0	2750	4180.262433593661	7
0	2753	4185.741951187626	8
0	2755	4186.387644596465	7
0	2758	4187.895866655741	6
0	2760	4193.433367324309	5
0	2762	4202.159952234962	4
0	2764	4203.186204677349	5
0	2767	4204.35639783322	6
0	2770	4207.163924075498	7
0	2773	4216.565802168284	6
0	2775	4216.635785311142	5
0	2777	4218.189571140266	6
0	2780	4221.686463586639	7
0	2783	4222.015346990817	8
0	2785	4223.328248639901	7
0	2788	4226.667948418831	6
0	2790	4229.111537509103	5
0	2792	4230.936965374816	6
0	2795	4237.166842809722	7
0	2798	4237.873608328384	8
0	2800	4238.46840895629	9
0	2802	4242.687906809483	8
0	2805	4246.923485674443	9
0	2807	4252.724481544578	8
0	2810	4254.726831496421	7
0	2813	4254.749664588352	6
0	2815	4257.34862972708	5
0	2817	4267.081826510903	6
0	2820	4267.36981905842	5
0	2822	4269.500295557906	6
0	2825	4271.859820864292	5
0	2827	4276.377705452253	4
0	2829	4279.099890508693	5
0	2832	4279.735537930621	6
0	2835	4281.549924067945	5
0	2837	4281.684155569884	6
0	2840	4281.903636010905	5
0	2842	4283.166635007878	4
0	2844	4283.957209982166	5
0	2847	4285.311523418279	4
0	2849	4288.443534451838	5
0	2852	4288.885054667298	4
0	2854	4290.159325743398	5
0	2857	4291.940303527978	6
0	2860	4298.727851441213	7
0	2863	4300.058652257396	6
0	2865	4305.860562338022	5
0	2867	4311.377309476352	4
0	2869	4315.147145607842	5
0	2872	4320.904710735109	6
0	2875	4328.850094966757	5
0	2877	4329.536534507554	4
0	2879	4333.509902464287	3
0	2881	4334.110678390781	4
0	2884	4346.323793390835	3
0	2886	4347.939231170201	4
0	2889	4352.432229076272	5
0	2892	4356.294199442511	6
0	2895	4356.778466534079	5
0	2897	4357.550536867833	4
0	2899	4359.445639518032	3
0	2901	4368.39187437643	2
0	2903	4369.310554780941	3
0	2906	4370.814005422433	2
0	2908	4372.245691273988	3
0	2911	4375.448435835472	4
0	2914	4380.974352660617	5
0	2917	4392.41307336224	4
0	2919	4396.56434926828	3
0	2921	4399.297647683582	2
0	2923	4410.639093276231	3
0	2926	4422.971021541355	2
0	2928	4428.284381405831	3
0	2931	4428.390623214371	4
0	2934	4432.897135556259	3
0	2936	4438.111674558217	4
0	2939	4442.535207821705	3
0	2941	4465.388862866771	4
0	2944	4497.204642334827	5
0	2947	4497.326762553837	6
0	2950	4499.985665018364	7
0	2953	4503.895619370984	6
0	2955	4506.326770125326	7
0	2958	4506.476147163655	6
0	2960	4507.73986654054	7
0	2963	4508.00967759255	8
0	2965	4510.302940622317	9
0	2967	4517.573224070815	10
0	2969	4518.86613385965	11
0	2971	4519.436599628936	10
0	2974	4521.281490408869	11
0	2976	4522.527588842727	10
0	2979	4525.002671826636	9
0	2982	4525.492818137583	10
0	2984	4527.589063611796	11
0	2986	4531.057756540707	10
0	2989	4535.858097118805	9
0	2992	4542.12231982584	8
0	2995	4544.162047060267	7
0	2998	4555.836481184158	8
0	3000	4561.98897008765	9
0	3002	4564.499041379124	8
0	3005	4568.042178674131	9
0	3007	4570.216377407567	10
0	3009	4577.132455059225	11
0	3011	4577.742467596288	12
0	3013	4582.961274432767	11
0	3016	4586.367752090209	10
0	3019	4586.703360676533	11
0	3021	4588.520272845604	12
0	3023	4588.676968135195	13
0	3025	4590.758450847521	14
0	3027	4593.03075906186	13
0	3030	4593.294969637963	12
0	3033	4594.094474664181	13
0	3035	4602.154932774518	14
0	3037	4606.928610162306	15
0	3039	4607.907917502851	16
0	3041	4621.209059503569	15
0	3044	4622.53889703145	16
0	3046	4622.64125424808	17
0	3048	4626.560913972471	16
0	3051	4630.086109883207	15
0	3054	4632.498620408943	16
0	3056	4632.564572825774	17
0	3058	4633.63831270682	16
0	3061	4635.245254558802	17
0	3063	4636.228105847201	18
0	3065	4636.257897917513	17
0	3068	4638.965600194584	18
0	3070	4650.53344273386	17
0	3073	4654.480024318691	18
0	3075	4655.816806007894	17
0	3078	4661.653300836077	18
0	3080	4669.390008562419	19
0	3082	4670.240275817708	18
0	3085	4671.63928655502	19
0	3087	4672.524792700732	20
0	3089	4672.731857045551	19
0	3092	4674.476738446756	20
0	3094	4679.65362770695	19
0	3097	4683.458861547135	18
0	3100	4687.136433936305	19
0	3102	4698.256486890809	18
0	3105	4698.803679282502	17
0	3108	4699.907215687969	16
0	3111	4707.944168404639	17
0	3113	4715.502546859456	18
0	3115	4719.610097466501	19
0	3117	4724.334629544019	18
0	3120	4733.385061565166	19
0	3122	4737.18162609797	20
0	3124	4738.963432903494	21
0	3126	4740.58066553246	22
0	3128	4741.324277874427	21
0	3131	4742.839144512867	20
0	3134	4744.023965282983	19
0	3137	4744.403166585125	20
0	3139	4746.217387879128	21
0	3141	4751.45891157782	20
0	3144	4753.059212298231	19
0	3147	4755.270225301568	18
0	3150	4757.024858955842	19
0	3152	4758.681516541888	20
0	3154	4762.510724647799	21
0	3156	4767.226969875047	20
0	3159	4767.730723045541	19
0	3162	4768.654936735117	18
0	3165	4772.49325018802	17
0	3168	4775.78768682826	18
0	3170	4782.830703474646	17
0	3173	4783.843403420028	16
0	3176	4786.625283848724	15
0	3179	4788.858897495046	14
0	3182	4789.970661086021	13
0	3185	4797.975435046337	14
0	3187	4800.410116386706	13
0	3190	4801.995604419518	12
0	3193	4807.26497762942	13
0	3195	4808.327767143583	14
0	3197	4812.566136841356	15
0	3199	4814.199243851595	16
0	3201	4820.653724686721	15
0	3204	4822.382180875325	16
0	3206	4833.269877280251	17
0	3208	4833.306317221122	16
0	3211	4840.262234157513	15
0	3214	4840.63683067509	16
0	3216	4842.539018118086	17
0	3218	4845.493766427289	16
0	3221	4845.732108757774	17
0	3223	4847.387228677683	18
0	3225	4847.428848251398	17
0	3228	4856.847901685157	18
0	3230	4858.009159415589	17
0	3233	4859.127955854479	16
0	3236	4860.413787447152	15
0	3239	4861.936625258006	14
0	3242	4865.731899107678	13
0	3245	4871.389291821566	12
0	3248	4877.988211363838	11
0	3251	4882.749516424743	10
0	3254	4885.180053820442	11
0	3256	4887.199195808201	10
0	3259	4888.546528628642	9
0	3262	4888.899934958703	10
0	3264	4903.018163682366	11
0	3266	4904.411842291697	10
0	3269	4909.92120395607	9
0	3272	4911.277949235611	8
0	3275	4911.293844463208	7
0	3278	4912.245264941587	6
0	3280	4912.374096450935	5
0	3282	4922.692204006633	4
0	3284	4923.522448900323	5
0	3287	4928.958372911594	6
0	3290	4929.337878552912	5
0	3292	4930.418742986192	6
0	3295	4937.273078409662	7
0	3298	4937.892367932717	8
0	3300	4940.04815294868	9
0	3302	4941.887123232274	8
0	3305	4942.283662413073	9
0	3307	4950.128170691476	10
0	3309	4953.071211346	11
0	3311	4954.738258348036	12
0	3313	4957.399061863997	11
0	3316	4957.756966897604	12
0	3318	4960.990693485669	13
0	3320	4965.454434662469	12
0	3323	4965.747118148642	13
0	3325	4970.723364757932	12
0	3328	4976.296024182987	11
0	3331	4976.51076593799	12
0	3333	4977.279065679797	11
0	3336	4978.957341850754	10
0	3339	4991.694365103537	9
0	3342	4996.057237158587	10
0	3344	4996.482072394976	11
0	3346	4999.233567376334	12
0	3348	4999.344925386309	11
0	3351	4999.416641197197	10
0	3354	5001.825361657123	11
0	3356	5003.556744978742	12
0	3358	5005.833568798031	13
0	3360	5008.022598930111	14
0	3362	5010.954838678932	13
0	3365	5015.572279401245	14
0	3367	5016.574487520084	13
0	3370	5017.84630726707	12
0	3373	5024.878605023386	11
0	3376	5026.376723579454	10
0	3379	5028.045668374616	9
0	3382	5029.208607958987	10
0	3384	5030.692757753859	9
0	3387	5030.730214571803	8
0	3390	5034.000600149405	9
0	3392	5034.819793772044	8
0	3395	5035.235850767072	7
0	3398	5037.880013528323	8
0	3400	5039.584948589404	9
0	3402	5042.352304896683	8
0	3405	5042.395668388762	7
0	3408	5043.606978368867	6
0	3410	5044.268587172687	5
0	3412	5055.502724780115	4
0	3414	5055.909141085788	5
0	3417	5065.051148945951	6
0	3420	5065.775561514699	7
0	3423	5068.230552712988	6
0	3425	5068.326940660617	7
0	3428	5070.792190726605	6
0	3430	5073.944067414565	5
0	3432	5074.806063556355	4
0	3434	5080.400561826627	5
0	3437	5081.327864718782	6
0	3440	5081.423212583814	7
0	3443	5083.506095353807	8
0	3445	5095.002830952989	9
0	3447	5097.541177393498	8
0	3450	5098.833410566893	7
0	3453	5101.565443645012	6
0	3455	5106.294542241634	5
0	3457	5108.801075220978	6
0	3460	5110.619292568455	7
0	3463	5110.812077811365	6
0	3465	5114.378184092887	7
0	3468	5116.990457045067	8
0	3470	5117.525805487255	9
0	3472	5122.963246330106	10
0	3474	5126.303975948192	9
0	3477	5129.706105216841	8
0	3480	5132.346869150293	7
0	3483	5134.156929550033	6
0	3485	5142.914489997336	5
0	3487	5147.688837496464	6
0	3490	5149.909802085227	7
0	3493	5149.959770990248	8
0	3495	5154.092632743322	9
0	3497	5158.222509798992	8
0	3500	5166.08521150595	7
0	3503	5167.998332447517	6
0	3505	5169.960196572111	7
0	3508	5176.931416672541	8
0	3510	5177.014882637677	7
0	3513	5177.856502352671	6
0	3515	5178.101523132484	7
0	3518	5178.93432890724	8
0	3520	5182.505952072336	7
0	3523	5186.308354807479	6
0	3525	5190.803892111426	5
0	3527	5190.819743757611	4
0	3529	5193.059270582705	5
0	3532	5196.742641242166	6
0	3535	5200.769347416856	5
0	3537	5207.959943473743	4
0	3539	5218.759962550682	3
0	3541	5223.895743394865	4
0	3544	5234.851264405454	3
0	3546	5239.171124185894	4
0	3549	5239.309690634379	5
0	3552	5252.281298734363	6
0	3555	5253.310373941775	5
0	3557	5263.72969750263	4
0	3559	5269.650850138504	3
0	3561	5273.150880610845	4
0	3564	5275.111675801056	3
0	3566	5280.798209521755	4
0	3569	5281.452021697875	5
0	3572	5286.418237379841	6
0	3575	5290.690098105864	5
0	3577	5294.084031444988	6
0	3580	5294.30029814978	5
0	3582	5299.752618200946	6
0	3585	5306.450536191152	5
0	3587	5307.249909993252	6
0	3590	5311.254716563569	5
0	3592	5315.448158718749	4
0	3594	5324.889499658662	5
0	3597	5325.451456088951	4
0	3599	5326.448567783004	5
0	3602	5328.664291979211	4
0	3604	5341.562265081549	5
0	3607	5344.279013999553	6
0	3610	5344.80300392722	7
0	3613	5345.507857228907	6
0	3615	5347.481317332697	5
0	3617	5349.642899414323	6
0	3620	5352.367679931552	7
0	3623	5354.073474360614	6
0	3625	5355.034290229228	5
0	3627	5357.261202387576	6
0	3630	5369.101064725952	7
0	3633	5370.149846573543	6
0	3635	5371.850432345258	5
0	3637	5371.934232553287	4
0	3639	5376.114479490129	3
0	3641	5379.470996514937	2
0	3643	5379.914676536906	1
0	3645	5381.983154340864	2
0	3648	5384.924433942413	1
0	3650	5390.016109648455	2
0	3653	5396.049088964879	3
0	3656	5402.333097693883	4
0	3659	5411.02791039019	5
0	3662	5411.10457152661	4
0	3664	5423.09357345225	3
0	3666	5426.95154581809	2
0	3668	5427.724927335043	3
0	3671	5435.463323454243	4
0	3674	5448.657787651002	3
0	3676	5449.142114880574	2
0	3678	5451.635601280627	3
0	3681	5452.350766002628	4
0	3684	5452.792750184053	5
0	3687	5457.542722282783	6
0	3690	5466.912907676522	7
0	3693	5467.027779988318	8
0	3695	5469.683173826928	9
0	3697	5476.730572265008	8
0	3700	5477.265532664165	9
0	3702	5482.041788813548	8
0	3705	5485.819394551776	7
0	3708	5489.185297750427	8
0	3710	5494.188557538206	9
0	3712	5496.430711322898	10
0	3714	5499.343387818897	9
0	3717	5504.733196026727	8
0	3720	5505.604684438996	9
0	3722	5517.871833977507	10
0	3724	5519.058663518099	9
0	3727	5519.788343250713	8
0	3730	5522.93015118514	7
0	3733	5523.560651162729	6
0	3735	5528.20441204022	7
0	3738	5529.401341581499	6
0	3740	5530.732591580734	7
0	3743	5533.701518154157	6
0	3745	5539.520133378497	5
0	3747	5550.76765455342	6
0	3750	5553.789610906795	7
0	3753	5554.257939383768	8
0	3755	5555.694079485086	7
0	3758	5558.703114676568	6
0	3760	5559.453527565789	5
0	3762	5560.532437015254	4
0	3764	5563.450879895096	5
0	3767	5571.712740649575	6
0	3770	5572.061987692076	7
0	3773	5572.459400129291	6
0	3775	5586.805490676028	5
0	3777	5588.394220266569	6
0	3780	5588.984362539889	5
0	3782	5590.453593550167	4
0	3784	5590.598871285034	3
0	3786	5591.839106311568	2
0	3788	5595.307131290727	3
0	3791	5597.440971921664	2
0	3793	5600.87591270052	3
0	3796	5601.145564660704	4
0	3799	5607.002475776615	5
0	3802	5610.858471189472	4
0	3804	5611.732795778874	5
0	3807	5611.981714636705	6
0	3810	5613.270236599091	7
0	3813	5617.360383257149	8
0	3815	5625.719135248139	7
0	3818	5626.178255899098	8
0	3820	5626.812912600261	7
0	3823	5645.933598317882	6
0	3825	5650.121630749287	5
0	3827	5651.176047601955	4
0	3829	5655.455558232129	3
0	3831	5657.767170096973	4
0	3834	5660.9803998426	5
0	3837	5664.138433414871	6
0	3840	5665.365431965158	7
0	3843	5668.455027951561	8
0	3845	5669.936892197664	9
0	3847	5671.782573476688	10
0	3849	5672.775818476616	9
0	3852	5672.903305024659	8
0	3855	5674.976876546642	7
0	3858	5675.176286375816	8
0	3860	5682.678773855121	9
0	3862	5682.74717961801	10
0	3864	5686.5598705339	11
0	3866	5691.818809708005	10
0	3869	5693.179931356074	11
0	3871	5699.333680878157	12
0	3873	5703.089557915895	11
0	3876	5707.139114507133	12
0	3878	5708.369073940926	13
0	3880	5708.929758481745	12
0	3883	5711.129792868222	11
0	3886	5722.841124901504	10
0	3889	5729.553557579983	9
0	3892	5733.702678723473	8
0	3895	5736.452123392358	9
0	3897	5738.184473703093	10
0	3899	5748.531692393024	9
0	3902	5750.672202791016	8
0	3905	5755.015175978059	7
0	3908	5760.802722532881	8
0	3910	5766.54746298855	9
0	3912	5769.754180306917	10
0	3914	5779.116571906267	9
0	3917	5787.844700976336	10
0	3919	5788.665608816462	11
0	3921	5792.994390600759	12
0	3923	5798.729465001389	13
0	3925	5799.772498788797	12
0	3928	5800.199856666831	13
0	3930	5806.378388417053	12
0	3933	5806.93738517132	13
0	3935	5809.622655279934	12
0	3938	5812.463861491254	13
0	3940	5812.855138127501	14
0	3942	5818.455742584415	15
0	3944	5835.77004399501	14
0	3947	5843.068018145517	15
0	3949	5850.757409368215	16
0	3951	5856.809449677367	15
0	3954	5864.264237578343	16
0	3956	5874.363218152174	15
0	3959	5876.287307279971	14
0	3962	5877.790838522533	13
0	3965	5880.46956103013	14
0	3967	5882.618568163956	13
0	3970	5883.663387223692	12
0	3973	5884.690460710587	11
0	3976	5891.957470750105	10
0	3979	5893.244846643469	11
0	3981	5893.72866455284	12
0	3983	5896.610339458751	11
0	3986	5900.072278024786	10
0	3989	5902.783740390812	9
0	3992	5903.161733811767	10
0	3994	5906.79173259847	9
0	3997	5907.115610497652	8
0	4000	5907.466010431674	9
0	4002	5907.621566392672	8
0	4005	5912.408846818458	7
0	4008	5913.139346281892	8
0	4010	5924.251222402492	9
0	4012	5926.610809211199	10
0	4014	5926.812674112296	9
0	4017	5934.233375878364	8
0	4020	5934.812372943612	7
0	4023	5952.639180389845	8
0	4025	5958.471430425538	9
0	4027	5959.535260713274	10
0	4029	5960.360056558073	11
0	4031	5965.323277056954	12
0	4033	5966.401329242415	11
0	4036	5967.688977240278	10
0	4039	5969.446637185232	9
0	4042	5979.244286253758	10
0	4044	5980.093718699636	9
0	4047	5989.866299441594	8
0	4050	5991.971015969429	7
0	4053	5994.140554631162	6
0	4055	5996.193920476836	7
0	4058	6003.35335761359	6
0	4060	6005.484194956261	5
0	4062	6006.21906628564	6
0	4065	6007.26959987635	7
0	4068	6012.231130551131	6
0	4070	6034.444161337704	5
0	4072	6040.409618720802	6
0	4075	6043.749629977186	5
0	4077	6044.426406869374	6
0	4080	6045.598362889545	7
0	4083	6046.920617723965	6
0	4085	6047.257487805774	7
0	4088	6048.085833884173	8
0	4090	6048.465149539949	9
0	4092	6049.497285408146	10
0	4094	6055.280521613111	9
0	4097	6056.662158452971	10
0	4099	6059.412907500636	11
0	4101	6080.070399401215	12
0	4103	6082.682362053804	11
0	4106	6083.476182202041	10
0	4109	6084.150137283046	9
0	4112	6093.380322157549	10
0	4114	6095.710478478801	9
0	4117	6095.831538241577	10
0	4119	6098.333758207678	9
0	4122	6117.872543615919	10
0	4124	6125.078856633167	9
0	4127	6125.269200280948	8
0	4130	6134.663684566358	7
0	4133	6140.157506672905	6
0	4135	6141.235225256068	5
0	4137	6148.411173715888	6
0	4140	6161.996547934678	7
0	4143	6163.768375033117	8
0	4145	6167.560509938134	7
0	4148	6170.782595181547	6
0	4150	6179.717559021049	7
0	4153	6191.842933562279	6
0	4155	6193.78771566099	5
0	4157	6195.851819082424	4
0	4159	6199.281138053193	5
0	4162	6223.358742974769	4
0	4164	6225.6899846853	5
0	4167	6229.210414920385	6
0	4170	6229.863709360905	5
0	4172	6234.349321868567	6
0	4175	6241.83020973947	7
0	4178	6250.12803052182	6
0	4180	6250.946831742678	5
0	4182	6254.389369602514	6
0	4185	6261.908201825572	7
0	4188	6265.139029826098	6
0	4190	6269.509852097237	5
0	4192	6270.558889966037	6
0	4195	6271.231274656675	7
0	4198	6273.001696173305	8
0	4200	6282.135852017964	7
0	4203	6287.943746977799	6
0	4205	6306.517532355979	5
0	4207	6313.805918005316	6
0	4210	6317.308040890027	7
0	4213	6317.417250122899	6
0	4215	6321.678850284841	5
0	4217	6322.578818982518	4
0	4219	6322.636731357571	3
0	4221	6329.414447814253	4
0	4224	6333.704021093531	3
0	4226	6342.607575309771	2
0	4228	6343.706259484368	1
0	4230	6355.559601347308	2
0	4233	6356.866522874924	3
0	4236	6359.030904884567	4
0	4239	6364.604512012659	5
0	4242	6373.007525162428	6
0	4245	6374.731211654695	5
0	4247	6381.057463671447	6
0	4250	6382.208788816215	5
0	4252	6382.547572826983	4
0	4254	6385.540444698262	3
0	4256	6387.147525705517	2
0	4258	6396.557337771669	3
0	4261	6397.584322848295	4
0	4264	6401.613034201866	3
0	4266	6402.343153754479	4
0	4269	6404.107065669543	5
0	4272	6410.812761361797	6
0	4275	6417.286858431026	7
0	4278	6421.426477159416	6
0	4280	6425.224780801967	7
0	4283	6425.305214314766	8
0	4285	6426.090201902555	7
0	4288	6430.31670215943	6
0	4290	6438.058296255457	5
0	4292	6438.492172330725	4
0	4294	6438.640374348614	3
0	4296	6442.727444104139	4
0	4299	6446.881465024571	5
0	4302	6451.576001674129	6
0	4305	6468.95624686207	7
0	4308	6469.826825802072	8
0	4310	6471.773579750922	7
0	4313	6471.964653428917	8
0	4315	6477.559942025261	9
0	4317	6478.423829946347	10
0	4319	6478.446477674552	11
0	4321	6480.95288745223	10
0	4324	6482.425331774722	11
0	4326	6489.391332086953	12
0	4328	6490.677947453349	11
0	4331	6500.985722157846	10
0	4334	6502.211634170345	11
0	4336	6502.700961988383	10
0	4339	6506.201611924107	9
0	4342	6510.570878715562	10
0	4344	6510.833651083228	9
0	4347	6522.394303541164	10
0	4349	6531.946634839625	9
0	4352	6533.30424094394	8
0	4355	6535.035156247742	7
0	4358	6535.994220964625	6
0	4360	6538.401548302042	7
0	4363	6538.490465121754	6
0	4365	6547.891826442646	5
0	4367	6549.522722289799	6
0	4370	6550.643594315195	5
0	4372	6551.539669469277	4
0	4374	6554.781864528584	3
0	4376	6560.962871458191	4
0	4379	6561.621542131036	5
0	4382	6564.325900312927	4
0	4384	6564.434288428664	3
0	4386	6566.62398652909	4
0	4389	6583.718853985347	5
0	4392	6593.12716015931	6
0	4395	6593.777139801064	7
0	4398	6594.272038904153	8
0	4400	6596.600740808111	9
0	4402	6597.81437082189	8
0	4405	6603.988982002588	7
0	4408	6604.732661714792	6
0	4410	6607.012334964702	5
0	4412	6612.041192116045	6
0	4415	6612.35662837994	7
0	4418	6614.923796049262	8
0	4420	6615.82332804083	7
0	4423	6618.917731641762	6
0	4425	6627.837368421587	7
0	4428	6629.610795875309	8
0	4430	6629.889539317996	9
0	4432	6630.142818585196	10
0	4434	6640.481543795772	9
0	4437	6643.316214513604	8
0	4440	6648.078672531194	9
0	4442	6650.718828004701	10
0	4444	6656.684302764051	9
0	4447	6674.682777810282	8
0	4450	6675.650784917985	7
0	4453	6680.947631850109	8
0	4455	6683.388031538351	7
0	4458	6684.740457531009	8
0	4460	6691.151383565021	7
0	4463	6702.886801274882	8
0	4465	6714.134865816409	7
0	4468	6716.711064305537	6
0	4470	6718.934334422972	7
0	4473	6719.151212071857	6
0	4475	6720.258833810437	5
0	4477	6720.925519057712	4
0	4479	6727.576362003402	5
0	4482	6736.823237491277	6
0	4485	6737.855760057572	5
0	4487	6738.725513042589	4
0	4489	6739.205624397307	3
0	4491	6739.552170772225	4
0	4494	6745.278932701787	5
0	4497	6749.105798806786	4
0	4499	6753.623582242015	5
0	4502	6755.880007072019	4
0	4504	6765.867003110441	3
0	4506	6771.582265872043	4
0	4509	6780.084909275048	3
0	4511	6784.258597992565	4
0	4514	6791.278540637946	5
0	4517	6797.846437146255	6
0	4520	6799.44247629893	7
0	4523	6805.261956503236	8
0	4525	6807.481921298624	7
0	4528	6810.305950614805	8
0	4530	6818.788520189339	7
0	4533	6823.327447356178	8
0	4535	6824.866502760662	7
0	4538	6825.712408518517	6
0	4540	6835.88968413312	7
0	4543	6836.5814913614	6
0	4545	6842.248742664466	5
0	4547	6843.34798435121	6
0	4550	6843.885528382502	5
0	4552	6844.816020326451	6
0	4555	6847.965047330935	7
0	4558	6849.085552047554	8
0	4560	6855.75613126906	7
0	4563	6862.474445338116	8
0	4565	6869.620457283608	7
0	4568	6872.101071433073	6
0	4570	6873.462310904233	7
0	4573	6873.613685536672	8
0	4575	6874.298131645887	9
0	4577	6878.652041084853	10
0	4579	6881.88459255195	9
0	4582	6896.002236355358	8
0	4585	6897.424928719854	9
0	4587	6898.155663629641	8
0	4590	6899.333903677096	9
0	4592	6899.652806032897	8
0	4595	6899.844073969112	7
0	4598	6902.200391678695	8
0	4600	6907.203446180475	9
0	4602	6910.329154207285	8
0	4605	6911.401201939202	7
0	4608	6913.819157114835	6
0	4610	6914.779890573898	7
0	4613	6922.796853996901	6
0	4615	6927.420181454456	7
0	4618	6928.319410233402	8
0	4620	6929.472792502655	9
0	4622	6932.9472984029	8
0	4625	6938.034787646769	9
0	4627	6938.549856069746	8
0	4630	6940.335874367631	7
0	4633	6943.350480480585	8
0	4635	6951.434634958984	7
0	4638	6955.209816095767	6
0	4640	6957.953734873999	5
0	4642	6967.066536415633	6
0	4645	6968.550849968763	5
0	4647	6971.378161211627	4
0	4649	6976.416608404131	5
0	4652	6978.395791823899	4
0	4654	6980.453042466603	3
0	4656	6982.030719192448	4
0	4659	6983.590587988436	5
0	4662	6984.397718484591	4
0	4664	6999.089896925222	5
0	4667	7009.481085205003	6
0	4670	7011.314081548503	7
0	4673	7017.564410984409	8
0	4675	7018.87296141954	7
0	4678	7019.742128211755	6
0	4680	7023.639304559567	7
0	4683	7023.707900399913	8
0	4685	7024.033979955512	9
0	4687	7026.99217665214	10
0	4689	7032.154066560535	9
0	4692	7033.516871988724	8
0	4695	7041.663039105255	7
0	4698	7041.738033936655	6
0	4700	7042.963472029659	5
0	4702	7043.862868194274	4
0	4704	7044.498706715642	5
0	4707	7052.501756047125	6
0	4710	7053.845092645293	5
0	4712	7053.948627523061	4
0	4714	7056.98013469178	3
0	4716	7063.916932405577	2
0	4718	7068.64205462662	3
0	4721	7074.866861880554	4
0	4724	7076.926072899222	5
0	4727	7088.837804826357	4
0	4729	7095.512883964319	5
0	4732	7100.435648987089	4
0	4734	7102.835162995227	3
0	4736	7105.308975418914	4
0	4739	7108.705126048502	3
0	4741	7117.344504949492	4
0	4744	7121.586487363908	5
0	4747	7122.035190928931	6
0	4750	7122.452801534905	5
0	4752	7125.370352830434	6
0	4755	7125.665353508853	5
0	4757	7128.931214345518	4
0	4759	7129.061351760127	5
0	4762	7138.6477296524	6
0	4765	7140.489475535615	5
0	4767	7140.517690491841	6
0	4770	7144.68661631121	7
0	4773	7148.611457488225	8
0	4775	7152.567843880497	7
0	4778	7153.260601006136	6
0	4780	7157.803472191553	7
0	4783	7159.502771642176	8
0	4785	7162.389175669062	7
0	4788	7168.506574982581	6
0	4790	7169.219286345463	7
0	4793	7169.635228470939	6
0	4795	7171.1617854714	5
0	4797	7171.794164639129	4
0	4799	7172.112411374527	3
0	4801	7183.894998056491	4
0	4804	7193.995196526255	5
0	4807	7197.222028757195	4
0	4809	7204.231529710969	5
0	4812	7216.142275413842	6
0	4815	7216.281246842183	7
0	4818	7216.655415817934	8
0	4820	7217.190301338355	9
0	4822	7222.522825395187	8
0	4825	7222.741975346002	9
0	4827	7225.619660232465	10
0	4829	7225.940110776643	9
0	4832	7226.190798095043	8
0	4835	7229.130185888007	7
0	4838	7229.439604384656	6
0	4840	7235.48035933074	7
0	4843	7239.967563331804	8
0	4845	7245.754211798355	7
0	4848	7246.713242485166	6
0	4850	7252.923910020872	7
0	4853	7253.459483568757	6
0	4855	7259.610718825298	7
0	4858	7264.321542767123	8
0	4860	7265.221287668972	9
0	4862	7265.526446300831	8
0	4865	7266.618385755172	7
0	4868	7271.82755326386	8
0	4870	7274.48041815503	7
0	4873	7275.039956503193	6
0	4875	7279.231471086437	5
0	4877	7286.737243786336	6
0	4880	7294.297323211433	5
0	4882	7295.291260961994	4
0	4884	7308.918352508089	5
0	4887	7309.383639975821	6
0	4890	7311.060417062912	7
0	4893	7317.084653345934	6
0	4895	7317.516114932195	5
0	4897	7320.971087697988	6
0	4900	7322.256872385175	5
0	4902	7323.167560615424	6
0	4905	7324.429242392744	7
0	4908	7324.576413526368	8
0	4910	7326.517891944012	7
0	4913	7333.690817667409	8
0	4915	7335.922041561899	7
0	4918	7337.275360630752	8
0	4920	7342.220869894832	9
0	4922	7344.336973193218	10
0	4924	7347.500069896686	11
0	4926	7347.833492218138	10
0	4929	7348.962892998453	11
0	4931	7354.130685004154	10
0	4934	7359.686204007736	9
0	4937	7360.588897870997	8
0	4940	7361.067219333354	9
0	4942	7361.698294565469	8
0	4945	7362.789741214982	9
0	4947	7362.964794703014	10
0	4949	7369.838665634124	9
0	4952	7370.193930331926	10
0	4954	7374.893325589346	9
0	4957	7380.672985293152	10
0	4959	7391.733280957741	9
0	4962	7392.62420898577	8
0	4965	7393.821456069363	9
0	4967	7394.224877290902	10
0	4969	7395.083226030585	9
0	4972	7396.540673474621	8
0	4975	7398.6434783896	9
0	4977	7398.898208485235	8
0	4980	7400.774586241401	9
0	4982	7402.554359376516	8
0	4985	7405.730784949672	9
0	4987	7412.305053958055	8
0	4990	7412.948889986219	7
0	4993	7419.690933849869	8
0	4995	7421.033580219857	7
0	4998	7421.8687984201	6
0	5000	7423.425497342777	7
0	5003	7424.69702010157	8
0	5005	7426.524490583746	7
0	5008	7427.444566577758	8
0	5010	7428.633554451649	7
0	5013	7429.00427377601	6
0	5015	7431.537700550697	7
0	5018	7436.823545797204	6
0	5020	7439.576259150229	5
0	5022	7446.289614771199	6
0	5025	7448.108422197777	5
0	5027	7453.064739543785	6
0	5030	7453.100745156093	7
0	5033	7456.07109371162	8
0	5035	7460.605433975362	9
0	5037	7460.844461351207	10
0	5039	7464.873579115209	11
0	5041	7466.250218633797	12
0	5043	7469.600988298315	11
0	5046	7476.604374487581	10
0	5049	7481.324765763649	11
0	5051	7485.067205071507	12
0	5053	7485.268618119699	13
0	5055	7486.233461851709	12
0	5058	7489.507272254103	11
0	5061	7490.759012875673	10
0	5064	7493.031924809968	9
0	5067	7503.953073674176	8
0	5070	7509.996612238935	7
0	5073	7514.678138094603	8
0	5075	7515.527170775314	7
0	5078	7516.317746470149	8
0	5080	7519.090515573744	7
0	5083	7523.169817757497	8
0	5085	7525.403127163051	7
0	5088	7526.179525264981	6
0	5090	7527.186690579035	7
0	5093	7529.594240950779	6
0	5095	7531.849873265265	7
0	5098	7532.894378367656	6
0	5100	7533.391282004934	5
0	5102	7539.389563684727	4
0	5104	7541.218568066631	5
0	5107	7544.95078248221	4
0	5109	7547.947194047501	5
0	5112	7549.874215950818	6
0	5115	7554.005037062961	7
0	5118	7554.54237946116	6
0	5120	7555.913060371974	7
0	5123	7561.742805997078	6
0	5125	7563.72103509663	5
0	5127	7567.535376090943	6
0	5130	7580.146785704233	7
0	5133	7582.484160166349	8
0	5135	7583.147633329393	9
0	5137	7586.975610463035	8
0	5140	7596.79663732877	7
0	5143	7599.534588922336	6
0	5145	7600.12370137462	5
0	5147	7606.788263658125	6
0	5150	7609.873946337794	5
0	5152	7611.831148365398	6
0	5155	7612.481646151287	5
0	5157	7625.489343872553	6
0	5160	7632.266447873827	7
0	5163	7633.093731703733	8
0	5165	7633.111104533866	7
0	5168	7639.397521502829	6
0	5170	7639.534180496206	5
0	5172	7641.723400327869	6
0	5175	7646.941633780126	5
0	5177	7647.407960990303	6
0	5180	7647.648454351345	7
0	5183	7649.209454089666	6
0	5185	7651.965019337325	7
0	5188	7653.790533124412	8
0	5190	7654.417449298982	7
0	5193	7655.084603548912	8
0	5195	7664.243872426005	7
0	5198	7665.875089410719	6
0	5200	7667.424083364534	7
0	5203	7672.304342177522	8
0	5205	7675.469728324393	7
0	5208	7678.93043618104	6
0	5210	7679.082990957717	5
0	5212	7679.212115875811	6
0	5215	7681.010922725645	5
0	5217	7681.526281971038	6
0	5220	7683.285702451803	7
0	5223	7684.73712895736	8
0	5225	7686.131450448998	7
0	5228	7686.978868103319	6
0	5230	7687.878129077396	7
0	5233	7689.176770027979	8
0	5235	7689.22288406244	9
0	5237	7697.359122780232	8
0	5240	7697.807992002215	9
0	5242	7700.57466285625	8
0	5245	7702.851618881023	7
0	5248	7705.582278588812	6
0	5250	7715.61853416065	7
0	5253	7723.99035606425	6
0	5255	7724.110701600239	5
0	5257	7726.737760204891	6
0	5260	7727.103217584118	5
0	5262	7734.635595678113	4
0	5264	7735.80933204872	3
0	5266	7740.883503709947	4
0	5269	7744.318298822117	5
0	5272	7749.345234526703	6
0	5275	7752.259410553188	5
0	5277	7752.816701790246	6
0	5280	7753.688845346572	7
0	5283	7755.330011857481	6
0	5285	7755.406143093848	5
0	5287	7756.562277839719	6
0	5290	7761.117583128206	5
0	5292	7762.471547855746	4
0	5294	7764.279764160084	5
0	5297	7771.761673620969	4
0	5299	7772.358938784164	5
0	5302	7777.516634400439	6
0	5305	7778.237805776707	5
0	5307	7779.489850155	4
0	5309	7780.112911716714	5
0	5312	7793.835603196118	4
0	5314	7795.321080479846	5
0	5317	7797.020793326143	4
0	5319	7802.716150369302	3
0	5321	7803.81894319954	4
0	5324	7804.223775119008	3
0	5326	7809.502721364977	2
0	5328	7811.330345835247	3
0	5331	7814.372895769608	2
0	5333	7815.222146715489	3
0	5336	7816.25018655769	2
0	5338	7818.228663344415	3
0	5341	7819.953941373471	4
0	5344	7821.920078756915	3
0	5346	7824.345803367951	4
0	5349	7826.743065654779	5
0	5352	7826.881497129064	6
0	5355	7831.006163653063	5
0	5357	7832.585372688714	4
0	5359	7834.297548774959	3
0	5361	7835.547412025129	4
0	5364	7843.551857274819	5
0	5367	7849.375110687904	6
0	5370	7851.067730898073	7
0	5373	7852.154017759233	6
0	5375	7853.597385513274	7
0	5378	7855.350449780336	8
0	5380	7856.725353347392	7
0	5383	7857.58384190159	6
0	5385	7859.305135052071	7
0	5388	7862.468025302053	8
0	5390	7863.202927831102	7
0	5393	7865.341509878002	6
0	5395	7882.555703176286	5
0	5397	7883.312970376249	6
0	5400	7886.290588420957	5
0	5402	7886.578740225339	6
0	5405	7893.048918450712	5
0	5407	7894.300634140137	6
0	5410	7897.712480843455	5
0	5412	7904.042604324645	6
0	5415	7908.944294903361	5
0	5417	7910.403296335707	6
0	5420	7912.069248890467	7
0	5423	7917.089286457951	8
0	5425	7922.669476239749	7
0	5428	7926.385243978354	8
0	5430	7928.82292994699	7
0	5433	7944.480434896103	8
0	5435	7944.586360071212	9
0	5437	7944.934485614532	8
0	5440	7949.379317400145	9
0	5442	7961.131945335877	8
0	5445	7961.6653767077	7
0	5448	7964.38674845577	8
0	5450	7965.287574973109	7
0	5453	7965.60419375552	6
0	5455	7971.355855256281	5
0	5457	7975.032310484563	6
0	5460	7976.571448350787	7
0	5463	7981.142414681479	6
0	5465	7986.756449268641	5
0	5467	7994.918914705194	4
0	5469	7996.129173583872	5
0	5472	7996.374801305036	4
0	5474	7996.413068446203	3
0	5476	7996.512315098822	4
0	5479	8007.812378238574	5
0	5482	8007.996981440747	6
0	5485	8010.930370384286	5
0	5487	8012.575619702298	6
0	5490	8013.359377930832	5
0	5492	8017.654001231471	4
0	5494	8024.145118164666	3
0	5496	8028.07612761787	2
0	5498	8028.156439825581	3
0	5501	8028.785542743215	4
0	5504	8030.742884636954	3
0	5506	8034.723160561023	4
0	5509	8035.919188886947	5
0	5512	8043.117080281429	4
0	5514	8046.623527141118	5
0	5517	8046.967620550493	6
0	5520	8050.765252192625	5
0	5522	8053.72686515519	4
0	5524	8053.985609056317	5
0	5527	8055.60756896857	4
0	5529	8062.186909221876	3
0	5531	8065.568175937599	2
0	5533	8074.000320477376	3
0	5536	8079.511833239593	2
0	5538	8095.140780132948	1
0	5540	8095.416545013373	2
0	5543	8096.783199590374	1
0	5545	8099.196926869359	2
0	5548	8110.877654735753	3
0	5551	8113.251300827846	2
0	5553	8113.787648469386	1
0	5555	8122.642384900505	2
0	5558	8122.879183978345	3
0	5561	8127.969071785937	2
0	5563	8128.730591105331	3
0	5566	8134.352375580839	2
0	5568	8135.413867946399	3
0	5571	8135.557762527244	2
0	5573	8141.86642386281	3
0	5576	8146.138966137884	2
0	5578	8146.944181940721	1
0	5580	8160.747737953288	2
0	5583	8163.642145539788	1
0	5585	8164.387327482872	2
0	5588	8165.569307820705	3
0	5591	8165.618552886446	4
0	5594	8173.634923863703	5
0	5597	8175.087301228317	6
0	5600	8175.464748929925	5
0	5602	8181.921472385059	4
0	5604	8185.193847074338	3
0	5606	8197.073585982423	4
0	5609	8200.143620895804	3
0	5611	8211.817599377054	4
0	5614	8215.286088962322	5
0	5617	8233.961948470761	6
0	5620	8235.134622415207	7
0	5623	8238.733149951822	6
0	5625	8247.403177204222	7
0	5628	8247.44932896908	6
0	5630	8257.215776866827	5
0	5632	8278.066101336847	4
0	5634	8281.169123249587	5
0	5637	8285.083504010239	6
0	5640	8285.407002780003	5
0	5642	8308.501756643531	4
0	5644	8312.789157758996	5
0	5647	8316.026184375182	4
0	5649	8331.773501575977	5
0	5652	8342.018150486632	4
0	5654	8348.522826468694	5
0	5657	8353.364596344127	6
0	5660	8356.226091722036	5
0	5662	8357.331878423412	6
0	5665	8358.829156407765	5
0	5667	8375.623511790839	4
0	5669	8376.845248811348	5
0	5672	8388.749441620403	6
0	5675	8390.0218000273	7
0	5678	8399.519526896954	6
0	5680	8400.042296508635	5
0	5682	8424.778249671004	4
0	5684	8426.466569556442	5
0	5687	8429.961656240149	4
0	5689	8435.680752888896	5
0	5692	8441.155947366889	6
0	5695	8441.226496716434	7
0	5698	8446.036841715736	6
0	5700	8452.448530827376	5
0	5702	8463.504330015205	6
0	5705	8467.494717920397	5
0	5707	8467.498702851197	6
0	5710	8474.166547556521	7
0	5713	8475.287672969388	8
0	5715	8480.754495449288	7
0	5718	8484.178917453018	6
0	5720	8484.614117300765	5
0	5722	8488.325123317371	6
0	5725	8489.291755410893	7
0	5728	8489.62586700333	6
0	5730	8489.762850314237	5
0	5732	8497.479480037382	6
0	5735	8510.620413352231	5
0	5737	8520.566200525338	6
0	5740	8524.459848222551	7
0	5743	8533.277731637532	6
0	5745	8535.795051724204	7
0	5748	8539.027542155625	8
0	5750	8548.191579606198	7
0	5753	8552.811575575517	6
0	5755	8554.001770015412	7
0	5758	8555.036694054808	8
0	5760	8555.828185250747	9
0	5762	8556.215419188469	10
0	5764	8557.022150463859	11
0	5766	8564.79449354579	10
0	5769	8565.091648598544	9
0	5772	8568.800768057746	8
0	5775	8575.997157460974	7
0	5778	8579.375149662733	6
0	5780	8583.637348573283	5
0	5782	8588.898594993119	6
0	5785	8589.916450729766	7
0	5788	8590.701398129126	8
0	5790	8591.602850881805	9
0	5792	8596.120561927605	10
0	5794	8596.178344759786	9
0	5797	8597.454874940253	8
0	5800	8602.446567911307	9
0	5802	8602.964775584605	8
0	5805	8603.871119381354	9
0	5807	8607.214630447433	8
0	5810	8610.34286190694	7
0	5813	8612.165590662972	6
0	5815	8616.638702350726	5
0	5817	8619.115629332113	6
0	5820	8622.793356226109	5
0	5822	8628.17150798669	6
0	5825	8629.082295935731	5
0	5827	8629.95558729822	6
0	5830	8632.275720961076	5
0	5832	8656.234205648186	4
0	5834	8668.967663371663	3
0	5836	8682.781221456777	2
0	5838	8683.955547017225	3
0	5841	8688.223380743312	2
0	5843	8701.699124221381	3
0	5846	8707.869991060457	4
0	5849	8713.856944315055	3
0	5851	8715.020312979021	4
0	5854	8718.991345716014	3
0	5856	8723.694637178207	4
0	5859	8724.122342447265	3
0	5861	8725.661781689471	4
0	5864	8727.54364786132	5
0	5867	8728.99688005751	6
0	5870	8741.419805658317	7
0	5873	8743.41096108847	8
0	5875	8745.855032100653	7
0	5878	8747.325410180263	6
0	5880	8750.301757681439	7
0	5883	8760.405057890025	6
0	5885	8760.617397665146	7
0	5888	8763.23654507252	6
0	5890	8766.752691969456	5
0	5892	8772.526694434649	4
0	5894	8778.863744601659	5
0	5897	8783.911909430517	6
0	5900	8787.057485628018	5
0	5902	8787.693112514127	6
0	5905	8789.989182819006	5
0	5907	8800.387111401502	6
0	5910	8811.655504744862	5
0	5912	8823.27315052167	4
0	5914	8829.236216195886	5
0	5917	8829.76437131436	6
0	5920	8831.297128577419	7
0	5923	8835.750990853222	8
0	5925	8835.840407160089	9
0	5927	8843.741215635689	8
0	5930	8853.659766434735	7
0	5933	8858.358069890807	8
0	5935	8863.095644371759	7
0	5938	8871.323735998808	8
0	5940	8875.107544974166	7
0	5943	8876.636623481876	6
0	5945	8878.718244576581	5
0	5947	8883.047921761564	4
0	5949	8883.12372365341	5
0	5952	8884.423439681796	4
0	5954	8894.702755406734	5
0	5957	8896.99443721019	4
0	5959	8899.736733583158	5
0	5962	8901.183883234684	4
0	5964	8907.6296472575	5
0	5967	8909.541240840157	4
0	5969	8913.483456518849	3
0	5971	8916.111057967839	4
0	5974	8923.47548358424	5
0	5977	8924.122739577671	4
0	5979	8933.263253598088	3
0	5981	8934.421090074474	4
0	5984	8938.356054817429	5
0	5987	8939.560145639909	6
0	5990	8940.636418096994	5
0	5992	8949.133305272197	4
0	5994	8953.198281350356	5
0	5997	8954.69453492517	4
0	5999	8956.517379575981	3
0	6001	8958.094696266936	2
0	6003	8962.151389584074	3
0	6006	8967.250364688574	2
0	6008	8970.397567467161	3
0	6011	8970.99950479805	2
0	6013	8976.524786371745	1
0	6015	8979.427912132279	0
0	6017	8981.596998689445	1
0	6020	8983.974168601891	0
0	6022	8994.073608544228	1
0	6025	8995.174116726314	2
0	6028	9003.467447386752	3
0	6031	9017.561443985396	2
0	6033	9019.118900904231	3
0	6036	9027.059561293442	2
0	6038	9058.702433943866	3
0	6041	9064.610080340833	4
0	6044	9081.488254482073	5
0	6047	9083.041567580827	4
0	6049	9098.56268533073	5
0	6052	9100.764836476837	4
0	6054	9105.666908596128	3
0	6056	9111.414120252565	4
0	6059	9117.525689527602	5
0	6062	9131.002220317311	4
0	6064	9131.697154286279	3
0	6066	9137.256885539036	4
0	6069	9142.321272061648	3
0	6071	9147.090005222284	4
0	6074	9155.541953167825	3
0	6076	9161.361648810893	4
0	6079	9161.73396323416	3
0	6081	9162.102475684731	4
0	6084	9166.499813625608	3
0	6086	9167.563885634907	2
0	6088	9170.376876395318	3
0	6091	9172.191090473338	4
0	6094	9181.828757253979	5
0	6097	9192.288724934819	4
0	6099	9195.338731717199	5
0	6102	9196.319169239019	6
0	6105	9198.587197581011	7
0	6108	9199.893924002469	6
0	6110	9210.783844256399	7
0	6113	9214.918449305195	6
0	6115	9218.405889441256	5
0	6117	9225.750954539195	4
0	6119	9229.095651329635	5
0	6122	9236.246656150958	6
0	6125	9241.605955135855	7
0	6128	9243.722029923847	6
0	6130	9243.976024466771	5
0	6132	9248.228510272164	4
0	6134	9250.889745270201	5
0	6137	9251.885331227723	4
0	6139	9256.121402565645	3
0	6141	9258.465433706946	2
0	6143	9261.650088828312	3
0	6146	9267.271630208685	4
0	6149	9273.137831893055	5
0	6152	9277.791803004772	6
0	6155	9285.638128973158	7
0	6158	9294.148797830641	8
0	6160	9296.056603183483	7
0	6163	9300.934105130712	8
0	6165	9301.505437588923	7
0	6168	9310.433753556186	6
0	6170	9317.339811860113	5
0	6172	9317.360173007807	6
0	6175	9323.99318265075	5
0	6177	9326.384874068772	6
0	6180	9329.583416538521	5
0	6182	9333.273379145991	4
0	6184	9334.358878144168	3
0	6186	9336.612350575911	4
0	6189	9339.277744791727	3
0	6191	9354.020480774027	4
0	6194	9354.404003686218	5
0	6197	9360.435636329925	4
0	6199	9362.003582389028	5
0	6202	9362.153085576883	6
0	6205	9364.659957810033	5
0	6207	9365.372424091448	6
0	6210	9365.40155898499	7
0	6213	9368.963878057986	8
0	6215	9369.435135863548	7
0	6218	9371.550070708357	8
0	6220	9371.64216214872	7
0	6223	9375.306497531449	6
0	6225	9380.428934252747	7
0	6228	9384.220764052069	8
0	6230	9384.725234278769	9
0	6232	9393.246590163574	10
0	6234	9394.036033051349	9
0	6237	9394.206276966355	8
0	6240	9394.365776071019	7
0	6243	9394.756026329847	6
0	6245	9416.606669531046	7
0	6248	9419.412919930841	6
0	6250	9420.462967769972	5
0	6252	9421.945953603954	4
0	6254	9432.494369311231	3
0	6256	9439.761948758683	4
0	6259	9444.245014227089	5
0	6262	9444.944244484351	4
0	6264	9455.595762927165	5
0	6267	9459.621349861733	6
0	6270	9459.727326789407	5
0	6272	9463.180317115213	6
0	6275	9463.339609137928	5
0	6277	9465.188010898093	6
0	6280	9471.311653621659	5
0	6282	9476.209487408712	4
0	6284	9479.496100474514	5
0	6287	9484.802976844723	4
0	6289	9485.201026454935	5
0	6292	9486.961878263023	4
0	6294	9487.993701686534	3
0	6296	9489.157201789769	4
0	6299	9489.344333061424	5
0	6302	9496.988316934194	4
0	6304	9501.892182223408	5
0	6307	9505.297030596677	4
0	6309	9517.4999366055	5
0	6312	9518.395079305354	4
0	6314	9520.939142684012	3
0	6316	9524.023965056982	4
0	6319	9532.654245645922	3
0	6321	9539.548901061336	4
0	6324	9556.884706325032	5
0	6327	9558.055096165626	6
0	6330	9564.981556166312	5
0	6332	9565.954088716913	4
0	6334	9566.187652912725	5
0	6337	9566.226815873221	4
0	6339	9567.4955053642	5
0	6342	9569.968031688718	4
0	6344	9577.271371155795	5
0	6347	9579.18286586143	4
0	6349	9594.756423846599	5
0	6352	9605.013409043619	4
0	6354	9608.473079201761	5
0	6357	9612.683187478045	6
0	6360	9617.87856234346	5
0	6362	9620.663482495513	6
0	6365	9623.875347744806	7
0	6368	9628.000036295715	6
0	6370	9629.697271563653	7
0	6373	9630.181163687093	8
0	6375	9630.360788777141	7
0	6378	9632.718499813381	8
0	6380	9633.218413543721	9
0	6382	9633.43375820912	8
0	6385	9639.732355574679	9
0	6387	9639.962683952369	10
0	6389	9640.043805189729	11
0	6391	9647.034246153168	10
0	6394	9648.986600693624	11
0	6396	9656.449567466489	10
0	6399	9662.981994069254	11
0	6401	9663.482962710683	10
0	6404	9664.409075558578	9
0	6407	9666.767913098578	10
0	6409	9675.572836495454	9
0	6412	9685.505079764537	8
0	6415	9687.216924058641	7
0	6418	9688.493766623275	6
0	6420	9695.303372264658	7
0	6423	9700.581637602592	8
0	6425	9704.482561938585	7
0	6428	9704.939457641704	8
0	6430	9705.77467917205	9
0	6432	9706.436206893828	8
0	6435	9717.180234033811	9
0	6437	9718.902715737395	10
0	6439	9719.313118900919	9
0	6442	9726.919732128754	10
0	6444	9727.33587054514	9
0	6447	9728.18338507197	10
0	6449	9733.838755395457	11
0	6451	9734.795299516101	10
0	6454	9739.164350343499	11
0	6456	9743.654936541208	10
0	6459	9747.055858058441	11
0	6461	9749.680866896877	10
0	6464	9751.985564298002	9
0	6467	9752.440439466224	10
0	6469	9752.615414119857	9
0	6472	9755.952148283676	10
0	6474	9759.799190026223	9
0	6477	9759.882586578038	10
0	6479	9764.728443539405	11
0	6481	9764.769369057543	10
0	6484	9765.92618553843	11
0	6486	9770.986169472016	10
0	6489	9775.988740152307	11
0	6491	9777.099208842254	12
0	6493	9778.646852601715	11
0	6496	9787.83150708711	12
0	6498	9789.993656835918	13
0	6500	9794.382828385182	12
0	6503	9817.556258767521	13
0	6505	9819.545658122772	14
0	6507	9821.288819154807	15
0	6509	9823.136305357234	14
0	6512	9824.039246166586	13
0	6515	9826.334180844954	12
0	6518	9828.232805065845	11
0	6521	9834.729666032137	10
0	6524	9837.227882382924	11
0	6526	9851.888029776029	10
0	6529	9861.805381582086	9
0	6532	9863.512533875988	8
0	6535	9866.18793236448	7
0	6538	9868.041569699992	6
0	6540	9869.819874069522	5
0	6542	9875.43532401378	4
0	6544	9882.028873264143	3
0	6546	9883.776787441441	4
0	6549	9890.071448667902	5
0	6552	9899.421543397615	6
0	6555	9907.546417463747	5
0	6557	9926.96661103215	6
0	6560	9930.751784529636	5
0	6562	9938.091199166812	4
0	6564	9939.673646667187	5
0	6567	9944.558977251428	6
0	6570	9954.163768607777	7
0	6573	9962.946741783836	6
0	6575	9964.313779175011	7
0	6578	9970.678059238267	6
0	6580	9976.500402852339	5
0	6582	9982.115389878554	6
0	6585	9982.146495067685	5
0	6587	9983.315547336013	4
0	6589	9983.811225297376	3
0	6591	9988.52736962791	4
0	6594	9988.815546793728	5
0	6597	9989.008911676784	6
0	6600	9993.833906309011	5
0	6602	9998.990295834199	4
0	6604	9999.311421192196	3
0	6606	10002.225346743695	4
0	6609	10007.516557947737	5
0	6612	10010.182379667204	6
0	6615	10011.242806122517	5
0	6617	10013.386070920645	4
0	6619	10016.55601597753	3
0	6621	10022.167091841698	2
0	6623	10026.41474962219	1
0	6625	10043.274378184423	2
0	6628	10049.322380476627	3
0	6631	10050.639995441419	4
0	6634	10052.613201158962	5
0	6637	10060.996506378703	4
0	6639	10061.392310977514	3
0	6641	10062.680302864181	4
0	6644	10070.256655288329	5
0	6647	10071.28635404448	6
0	6650	10073.738411043689	5
0	6652	10086.866273950017	4
0	6654	10087.031019901271	5
0	6657	10087.031746723523	6
0	6660	10094.55419557148	7
0	6663	10096.320061831189	8
0	6665	10097.214349091147	9
0	6667	10102.31124690356	10
0	6669	10106.39893228076	9
0	6672	10116.319351760123	10
0	6674	10118.224186288637	9
0	6677	10118.72579066501	10
0	6679	10119.028085026891	11
0	6681	10127.055687948139	12
0	6683	10131.730880467141	11
0	6686	10132.608575443408	12
0	6688	10143.131112019599	13
0	6690	10144.688845901284	12
0	6693	10146.048392991962	13
0	6695	10161.194451997633	12
0	6698	10162.607078531608	11
0	6701	10163.441855585529	12
0	6703	10166.739767383791	11
0	6706	10171.772675804165	10
0	6709	10173.752422280439	11
0	6711	10174.262538463457	10
0	6714	10177.073632178287	9
0	6717	10177.42868685121	8
0	6720	10180.881538697877	7
0	6723	10182.567576203703	6
0	6725	10184.51239777715	7
0	6728	10185.854581938394	8
0	6730	10190.219389369361	7
0	6733	10198.731936213993	6
0	6735	10204.235616393359	5
0	6737	10206.452468408241	6
0	6740	10215.338889879344	5
0	6742	10222.434916865534	6
0	6745	10223.988160066991	5
0	6747	10226.403220518776	4
0	6749	10226.764798657256	3
0	6751	10250.535775189862	2
0	6753	10250.842451228438	3
0	6756	10252.964082656841	4
0	6759	10254.504842545121	3
0	6761	10258.115989845986	2
0	6763	10263.971829156201	3
0	6766	10264.881482458837	2
0	6768	10266.655079565896	3
0	6771	10285.988462221474	4
0	6774	10296.984267420809	5
0	6777	10297.666136758749	4
0	6779	10300.732327534225	3
0	6781	10300.960099528613	2
0	6783	10308.112118172257	3
0	6786	10308.649449531669	4
0	6789	10308.66551361877	5
0	6792	10321.550320881947	4
0	6794	10321.999625419811	5
0	6797	10323.134483012384	6
0	6800	10323.429864825692	5
0	6802	10323.529778901497	4
0	6804	10323.69645585883	3
0	6806	10328.513415634234	4
0	6809	10337.783527645052	3
0	6811	10344.91607689369	4
0	6814	10346.779311413937	3
0	6816	10353.553386078818	2
0	6818	10384.100098219092	3
0	6821	10384.345127734764	4
0	6824	10386.099371739157	5
0	6827	10394.665572966488	6
0	6830	10398.639952953762	7
0	6833	10401.658123593084	6
0	6835	10403.642180004706	7
0	6838	10412.704160407966	8
0	6840	10414.768642734367	7
0	6843	10417.128498810244	8
0	6845	10418.401938596576	7
0	6848	10432.275848547042	6
0	6850	10435.189871625718	5
0	6852	10442.828411107987	6
0	6855	10443.084212048327	5
0	6857	10450.289469092303	6
0	6860	10451.610529031825	7
0	6863	10458.182704502388	6
0	6865	10461.088912343097	7
0	6868	10463.561639091413	6
0	6870	10464.836037413354	5
0	6872	10469.25994632718	4
0	6874	10471.094673643316	5
0	6877	10471.386486396247	6
0	6880	10471.976081561215	7
0	6883	10473.607908171193	8
0	6885	10474.179763949139	7
0	6888	10475.926827257635	6
0	6890	10481.806677954353	5
0	6892	10484.426342987995	4
0	6894	10492.908277564296	5
0	6897	10496.787748903188	6
0	6900	10507.251418013819	7
0	6903	10512.010192846003	8
0	6905	10514.357104956909	7
0	6908	10518.825768978496	6
0	6910	10522.743281169081	5
0	6912	10523.455191493848	6
0	6915	10526.29392640999	5
0	6917	10528.637403899236	6
0	6920	10529.462160260577	7
0	6923	10530.038242535586	6
0	6925	10532.407624001475	5
0	6927	10535.407255833912	6
0	6930	10538.840442368	7
0	6933	10539.557117397627	6
0	6935	10541.122086201728	5
0	6937	10543.092258027529	4
0	6939	10549.749318367262	3
0	6941	10553.420714206848	4
0	6944	10555.118201988201	5
0	6947	10555.59597683209	6
0	6950	10557.225850086873	7
0	6953	10560.865837795095	6
0	6955	10567.847458007599	5
0	6957	10581.596326853917	6
0	6960	10588.212562480387	5
0	6962	10596.419984960136	6
0	6965	10604.06414926294	7
0	6968	10612.595773479798	8
0	6970	10614.144443494763	7
0	6973	10615.783781525216	6
0	6975	10616.019731976986	5
0	6977	10617.472189310356	4
0	6979	10621.943598027351	5
0	6982	10627.037450034479	4
0	6984	10638.204151461789	5
0	6987	10640.179964799746	4
0	6989	10651.827809932546	5
0	6992	10652.002777134471	4
0	6994	10664.18993609486	5
0	6997	10669.735042858081	4
0	6999	10670.299767955886	5
0	7002	10677.083597962692	4
0	7004	10681.219544029467	3
0	7006	10683.856001953944	4
0	7009	10694.769259685665	3
0	7011	10696.334890068595	2
0	7013	10698.37051084033	1
0	7015	10699.449675811394	0
0	7017	10705.394636185039	1
0	7020	10718.200256641054	0
0	7022	10724.275351400612	1
0	7025	10725.895802022251	2
0	7028	10730.539054184049	1
0	7030	10748.293429709093	2
0	7033	10764.854770348478	3
0	7036	10768.950486682521	4
0	7039	10776.939417399684	5
0	7042	10779.868569867969	4
0	7044	10780.349829056508	5
0	7047	10782.800540715053	6
0	7050	10786.783394215679	7
0	7053	10787.527432515117	6
0	7055	10787.670025733019	7
0	7058	10798.052554372096	6
0	7060	10800.48966067282	7
0	7063	10803.78396258616	6
0	7065	10806.654070701973	5
0	7067	10807.247059170943	6
0	7070	10814.213885445467	5
0	7072	10827.704851957609	6
0	7075	10829.938958661248	5
0	7077	10833.199373703096	6
0	7080	10835.303172334344	7
0	7083	10837.707203247485	6
0	7085	10842.901299413733	5
0	7087	10847.993764333069	6
0	7090	10854.484697210624	5
0	7092	10856.809805584724	4
0	7094	10860.454974912409	5
0	7097	10865.733340480621	6
0	7100	10866.378571403206	7
0	7103	10867.597933715721	6
0	7105	10869.50187971714	7
0	7108	10878.172841989753	8
0	7110	10878.615688950385	7
0	7113	10878.78640486959	6
0	7115	10882.11671490434	7
0	7118	10887.459260623676	6
0	7120	10887.595544442195	5
0	7122	10889.226818343154	4
0	7124	10890.430371363553	3
0	7126	10891.578534912956	2
0	7128	10897.126157363931	3
0	7131	10909.996562792026	2
0	7133	10913.340419017824	1
0	7135	10931.268302770503	2
0	7138	10931.496160792628	3
0	7141	10933.492134947961	4
0	7144	10937.378059996054	3
0	7146	10941.735389290341	2
0	7148	10942.17059787676	3
0	7151	10946.111124288139	2
0	7153	10964.2763341598	1
0	7155	10964.626469885646	2
0	7158	10966.72954141783	3
0	7161	10975.489432499585	2
0	7163	10978.058127063104	1
0	7165	10978.712007028655	0
0	7167	10988.772185387667	1
0	7170	10998.991299121093	0
0	7172	11003.302762177877	1
0	7175	11005.755911268002	2
0	7178	11007.10325056186	3
0	7181	11008.711402135798	4
0	7184	11011.243931709517	5
0	7187	11012.414110849004	6
0	7190	11015.538221303701	5
0	7192	11019.702629913001	6
0	7195	11030.599289078128	5
0	7197	11036.526299301415	4
0	7199	11037.175907830365	5
0	7202	11037.212126070116	4
0	7204	11037.333895456728	3
0	7206	11043.725123525299	4
0	7209	11047.410391851735	5
0	7212	11049.426453227998	6
0	7215	11054.546666813555	7
0	7218	11054.941307273456	6
0	7220	11068.638263645382	5
0	7222	11070.754208897291	6
0	7225	11072.022527275274	5
0	7227	11072.630675069622	6
0	7230	11073.154489760258	7
0	7233	11077.287500695516	6
0	7235	11080.779313289413	5
0	7237	11090.208358964731	6
0	7240	11090.290571114329	5
0	7242	11097.070031181249	4
0	7244	11102.876644422917	5
0	7247	11107.681688893396	4
0	7249	11107.886505389308	3
0	7251	11108.483531058847	2
0	7253	11111.348925909318	3
0	7256	11116.523897285441	2
0	7258	11121.546124769341	3
0	7261	11121.656547895805	2
0	7263	11136.535981436659	1
0	7265	11139.39825093602	2
0	7268	11140.126594767122	3
0	7271	11155.250125199652	4
0	7274	11155.279458501299	5
0	7277	11155.390725876115	6
0	7280	11160.065924593529	5
0	7282	11163.446014987907	6
0	7285	11165.156640370669	7
0	7288	11165.519050929976	8
0	7290	11165.526778673009	7
0	7293	11170.516349990669	6
0	7295	11179.565653431338	7
0	7298	11180.103173255226	6
0	7300	11192.539286021986	5
0	7302	11199.786608135804	6
0	7305	11201.061163924153	5
0	7307	11210.486313347644	6
0	7310	11214.411335069993	7
0	7313	11220.900025166348	6
0	7315	11226.055429894029	5
0	7317	11233.708869616093	4
0	7319	11237.412629030973	3
0	7321	11243.676137872496	4
0	7324	11246.022926238588	3
0	7326	11256.57155055831	4
0	7329	11256.960719819469	5
0	7332	11261.495358529742	6
0	7335	11262.742208409959	7
0	7338	11265.549899718705	6
0	7340	11277.260540875375	5
0	7342	11277.422695439174	4
0	7344	11282.193528179323	3
0	7346	11294.591143806751	4
0	7349	11298.837568159786	5
0	7352	11299.097186308213	6
0	7355	11300.946337508499	7
0	7358	11306.184739829237	6
0	7360	11306.470667366453	5
0	7362	11318.360034970592	4
0	7364	11320.081788534302	5
0	7367	11323.529900394848	6
0	7370	11326.539342533044	5
0	7372	11331.893853769245	6
0	7375	11339.269492809595	5
0	7377	11345.266001176205	6
0	7380	11345.65872264675	7
0	7383	11356.576431153119	6
0	7385	11363.506737586135	7
0	7388	11365.737656699219	6
0	7390	11367.35132371957	7
0	7393	11369.873234512703	8
0	7395	11381.127313526779	7
0	7398	11392.920770782787	8
0	7400	11394.002868015729	9
0	7402	11394.390425383926	8
0	7405	11394.955934119036	7
0	7408	11396.540036489905	8
0	7410	11399.483255405457	7
0	7413	11400.562360195946	6
0	7415	11402.302726178453	5
0	7417	11406.098752788655	4
0	7419	11407.903889155878	3
0	7421	11416.253328865264	4
0	7424	11417.723790093977	5
0	7427	11421.35092174276	4
0	7429	11423.297743508931	3
0	7431	11425.395547846684	4
0	7434	11434.350180023441	3
0	7436	11439.456642062808	4
0	7439	11452.546440860124	5
0	7442	11453.016528018098	6
0	7445	11454.954578275494	7
0	7448	11462.163638738188	6
0	7450	11467.950375577303	7
0	7453	11469.671166719415	8
0	7455	11470.155428116808	9
0	7457	11481.521222847847	8
0	7460	11482.664634936803	9
0	7462	11484.058298791623	10
0	7464	11484.72116365417	9
0	7467	11488.405662720644	8
0	7470	11489.739067308501	7
0	7473	11502.429411029645	8
0	7475	11503.36606320085	7
0	7478	11504.277395405916	8
0	7480	11518.316443578654	7
0	7483	11519.677295184647	8
0	7485	11521.54470890712	7
0	7488	11522.765125221406	6
0	7490	11525.076496717356	7
0	7493	11531.921844981622	8
0	7495	11533.409287136588	7
0	7498	11533.722811897816	6
0	7500	11536.309792994314	5
0	7502	11542.324844144018	4
0	7504	11543.884985771468	5
0	7507	11547.254632354976	6
0	7510	11547.50938184136	5
0	7512	11555.105096894403	6
0	7515	11557.14025721956	5
0	7517	11558.795603332173	4
0	7519	11559.45806675295	3
0	7521	11559.900710936618	4
0	7524	11560.820614430465	5
0	7527	11564.587703993445	4
0	7529	11566.178097602791	5
0	7532	11574.876266814845	4
0	7534	11576.200339901422	3
0	7536	11588.861105156966	4
0	7539	11592.20281870669	5
0	7542	11594.310214331849	4
0	7544	11600.956809642322	5
0	7547	11601.620904790836	4
0	7549	11602.549413282898	5
0	7552	11611.333810063329	6
0	7555	11612.236789433577	5
0	7557	11617.643172891237	4
0	7559	11618.460613387394	3
0	7561	11626.172402753102	2
0	7563	11629.991313130953	3
0	7566	11635.206577032285	4
0	7569	11635.86631905961	5
0	7572	11639.91289893835	6
0	7575	11642.047943472033	5
0	7577	11642.949872179748	6
0	7580	11647.123350330283	5
0	7582	11648.608328737721	4
0	7584	11649.085947514466	5
0	7587	11652.885893016802	4
0	7589	11656.077437421191	5
0	7592	11659.968483583416	6
0	7595	11661.938073250403	7
0	7598	11664.889683949308	8
0	7600	11665.071447681851	9
0	7602	11668.687536365086	8
0	7605	11674.400135929423	9
0	7607	11677.303895258368	10
0	7609	11684.280864818327	9
0	7612	11687.260288524731	8
0	7615	11687.521418564047	7
0	7618	11692.431184713643	6
0	7620	11698.442012020167	5
0	7622	11703.266557297253	6
0	7625	11710.374784133458	7
0	7628	11710.646867896939	8
0	7630	11711.576287307921	9
0	7632	11728.38770774556	10
0	7634	11732.304655371734	9
0	7637	11742.338367349057	10
0	7639	11747.504450849374	9
0	7642	11748.277074166302	8
0	7645	11758.523254411184	9
0	7647	11760.034054585342	8
0	7650	11762.202687850904	7
0	7653	11765.255713308719	8
0	7655	11766.382099379388	9
0	7657	11773.66192098575	10
0	7659	11777.168806524056	11
0	7661	11780.258492564907	10
0	7664	11783.422367100798	11
0	7666	11788.591981305909	12
0	7668	11792.058078561664	11
0	7671	11793.718917219294	12
0	7673	11796.70412648383	11
0	7676	11802.425034838602	10
0	7679	11804.802503944022	11
0	7681	11806.799209184709	12
0	7683	11807.466208427376	11
0	7686	11808.512204130059	12
0	7688	11815.522506906947	11
0	7691	11817.050464900944	12
0	7693	11817.263301482068	11
0	7696	11820.293657045388	10
0	7699	11820.71538611078	11
0	7701	11823.144497338521	10
0	7704	11827.717609318625	9
0	7707	11829.165311156943	10
0	7709	11829.36437687693	9
0	7712	11833.006408723635	8
0	7715	11834.762689055724	9
0	7717	11836.394192619297	10
0	7719	11836.820010586622	11
0	7721	11839.228203665668	12
0	7723	11843.792554286877	11
0	7726	11845.682103184202	12
0	7728	11846.632329633532	11
0	7731	11855.594978253641	10
0	7734	11858.788386052128	9
0	7737	11860.876471962619	8
0	7740	11861.461425408383	7
0	7743	11878.930757066363	6
0	7745	11892.189378371382	5
0	7747	11892.56411445804	6
0	7750	11898.710529694395	5
0	7752	11902.882953347131	6
0	7755	11904.256811816749	5
0	7757	11918.574117525139	4
0	7759	11923.122190371323	3
0	7761	11924.176413405339	4
0	7764	11929.322226080835	5
0	7767	11932.655855372962	6
0	7770	11944.313486512193	5
0	7772	11946.697563061577	6
0	7775	11947.076128119088	5
0	7777	11951.321633287261	6
0	7780	11963.14834837197	5
0	7782	11965.265953244656	6
0	7785	11967.692200011695	7
0	7788	11968.187970106551	6
0	7790	11968.712331801554	7
0	7793	11977.991247674799	6
0	7795	11979.977271943617	7
0	7798	11980.459382197659	6
0	7800	11985.622324533546	7
0	7803	11986.994386985329	6
0	7805	11992.514877856918	7
0	7808	11992.62713334544	8
0	7810	11996.178928624429	7
0	7813	11998.292917593212	6
0	7815	12001.568317365788	7
0	7818	12002.143006593024	6
0	7820	12003.925557866531	7
0	7823	12004.811609967318	8
0	7825	12006.44787231844	7
0	7828	12006.822712970057	8
0	7830	12011.015339049927	7
0	7833	12011.353746791854	6
0	7835	12016.869677257926	7
0	7838	12016.979478110745	6
0	7840	12017.539447641372	5
0	7842	12018.490264163315	4
0	7844	12022.610152506736	5
0	7847	12027.068590885709	6
0	7850	12033.000538806042	7
0	7853	12036.130448233974	6
0	7855	12039.382261910903	5
0	7857	12040.984081678274	6
0	7860	12042.88172926972	5
0	7862	12050.284545885191	6
0	7865	12057.218379320026	7
0	7868	12062.275626828615	6
0	7870	12065.561041199146	7
0	7873	12073.193463829768	8
0	7875	12079.090315435932	7
0	7878	12091.616488415698	6
0	7880	12094.152955926266	5
0	7882	12096.61953196033	4
0	7884	12098.072170033202	3
0	7886	12100.691700322179	2
0	7888	12108.024972818977	1
0	7890	12108.747269262619	0
0	7892	12108.884801255207	1
0	7895	12116.536545108714	0
0	7897	12125.499198128491	1
0	7900	12132.976712265224	2
0	7903	12134.387493794809	3
0	7906	12139.966215816999	4
0	7909	12146.729964117217	3
0	7911	12156.623042279421	2
0	7913	12157.113602418387	1
0	7915	12166.484404651529	0
0	7917	12179.25889496715	1
0	7920	12185.006210635554	2
0	7923	12190.290375350477	3
0	7926	12196.122850265467	4
0	7929	12197.217289697574	3
0	7931	12199.076419368137	4
0	7934	12210.332505217345	5
0	7937	12216.038099904735	4
0	7939	12219.026550706343	5
0	7942	12222.1098561914	6
0	7945	12225.710529697402	5
0	7947	12226.248830814943	6
0	7950	12228.93621696336	7
0	7953	12233.670585647234	6
0	7955	12238.532541912784	5
0	7957	12238.889750529222	6
0	7960	12241.095426538174	5
0	7962	12250.043230664578	6
0	7965	12251.925500074699	7
0	7968	12253.257937478094	6
0	7970	12256.914999318324	7
0	7973	12257.408537867931	6
0	7975	12260.911715842352	5
0	7977	12260.975597280512	4
0	7979	12265.529664327907	3
0	7981	12267.436776679127	2
0	7983	12278.542798485567	3
0	7986	12279.299197638124	4
0	7989	12279.438229237534	3
0	7991	12282.948221610343	4
0	7994	12287.249789713489	5
0	7997	12291.417269415372	4
0	7999	12307.711638044325	5
0	8002	12308.327065689408	4
0	8004	12311.198753720817	5
0	8007	12324.213261275162	4
0	8009	12325.952384169158	5
0	8012	12329.584783738085	4
0	8014	12333.525443923606	5
0	8017	12335.889398890173	4
0	8019	12337.228182996762	5
0	8022	12341.352833041811	6
0	8025	12342.695085923026	5
0	8027	12344.907670362558	6
0	8030	12349.781495650609	5
0	8032	12350.947588005124	4
0	8034	12357.244325686959	3
0	8036	12360.452071621246	2
0	8038	12362.900738382372	1
0	8040	12364.088386528232	2
0	8043	12370.730914880263	3
0	8046	12370.887203828349	4
[...]
1	7431	11425.395547846684	0
1	7434	11434.350180023441	0
1	7436	11439.456642062808	0
1	7439	11452.546440860124	0
1	7442	11453.016528018098	0
1	7445	11454.954578275494	0
1	7448	11462.163638738188	0
1	7450	11467.950375577303	0
1	7453	11469.671166719415	1
1	7455	11470.155428116808	2
1	7457	11481.521222847847	1
1	7460	11482.664634936803	2
1	7462	11484.058298791623	3
1	7464	11484.72116365417	2
1	7467	11488.405662720644	1
1	7470	11489.739067308501	0
1	7473	11502.429411029645	1
1	7475	11503.36606320085	0
1	7478	11504.277395405916	1
1	7480	11518.316443578654	0
1	7483	11519.677295184647	1
1	7485	11521.54470890712	0
1	7488	11522.765125221406	0
1	7490	11525.076496717356	0
1	7493	11531.921844981622	1
1	7495	11533.409287136588	0
1	7498	11533.722811897816	0
1	7500	11536.309792994314	0
1	7502	11542.324844144018	0
1	7504	11543.884985771468	0
1	7507	11547.254632354976	0
1	7510	11547.50938184136	0
1	7512	11555.105096894403	0
1	7515	11557.14025721956	0
1	7517	11558.795603332173	0
1	7519	11559.45806675295	0
1	7521	11559.900710936618	0
1	7524	11560.820614430465	0
1	7527	11564.587703993445	0
1	7529	11566.178097602791	0
1	7532	11574.876266814845	0
1	7534	11576.200339901422	0
1	7536	11588.861105156966	0
1	7539	11592.20281870669	0
1	7542	11594.310214331849	0
1	7544	11600.956809642322	0
1	7547	11601.620904790836	0
1	7549	11602.549413282898	0
1	7552	11611.333810063329	0
1	7555	11612.236789433577	0
1	7557	11617.643172891237	0
1	7559	11618.460613387394	0
1	7561	11626.172402753102	0
1	7563	11629.991313130953	0
1	7566	11635.206577032285	0
1	7569	11635.86631905961	0
1	7572	11639.91289893835	0
1	7575	11642.047943472033	0
1	7577	11642.949872179748	0
1	7580	11647.123350330283	0
1	7582	11648.608328737721	0
1	7584	11649.085947514466	0
1	7587	11652.885893016802	0
1	7589	11656.077437421191	0
1	7592	11659.968483583416	0
1	7595	11661.938073250403	0
1	7598	11664.889683949308	1
1	7600	11665.071447681851	2
1	7602	11668.687536365086	1
1	7605	11674.400135929423	2
1	7607	11677.303895258368	3
1	7609	11684.280864818327	2
1	7612	11687.260288524731	1
1	7615	11687.521418564047	0
1	7618	11692.431184713643	0
1	7620	11698.442012020167	0
1	7622	11703.266557297253	0
1	7625	11710.374784133458	0
1	7628	11710.646867896939	1
1	7630	11711.576287307921	2
1	7632	11728.38770774556	3
1	7634	11732.304655371734	2
1	7637	11742.338367349057	3
1	7639	11747.504450849374	2
1	7642	11748.277074166302	1
1	7645	11758.523254411184	2
1	7647	11760.034054585342	1
1	7650	11762.202687850904	0
1	7653	11765.255713308719	1
1	7655	11766.382099379388	2
1	7657	11773.66192098575	3
1	7659	11777.168806524056	4
1	7661	11780.258492564907	3
1	7664	11783.422367100798	4
1	7666	11788.591981305909	5
1	7668	11792.058078561664	4
1	7671	11793.718917219294	5
1	7673	11796.70412648383	4
1	7676	11802.425034838602	3
1	7679	11804.802503944022	4
1	7681	11806.799209184709	5
1	7683	11807.466208427376	4
1	7686	11808.512204130059	5
1	7688	11815.522506906947	4
1	7691	11817.050464900944	5
1	7693	11817.263301482068	4
1	7696	11820.293657045388	3
1	7699	11820.71538611078	4
1	7701	11823.144497338521	3
1	7704	11827.717609318625	2
1	7707	11829.165311156943	3
1	7709	11829.36437687693	2
1	7712	11833.006408723635	1
1	7715	11834.762689055724	2
1	7717	11836.394192619297	3
1	7719	11836.820010586622	4
1	7721	11839.228203665668	5
1	7723	11843.792554286877	4
1	7726	11845.682103184202	5
1	7728	11846.632329633532	4
1	7731	11855.594978253641	3
1	7734	11858.788386052128	2
1	7737	11860.876471962619	1
1	7740	11861.461425408383	0
1	7743	11878.930757066363	0
1	7745	11892.189378371382	0
1	7747	11892.56411445804	0
1	7750	11898.710529694395	0
1	7752	11902.882953347131	0
1	7755	11904.256811816749	0
1	7757	11918.574117525139	0
1	7759	11923.122190371323	0
1	7761	11924.176413405339	0
1	7764	11929.322226080835	0
1	7767	11932.655855372962	0
1	7770	11944.313486512193	0
1	7772	11946.697563061577	0
1	7775	11947.076128119088	0
1	7777	11951.321633287261	0
1	7780	11963.14834837197	0
1	7782	11965.265953244656	0
1	7785	11967.692200011695	0
1	7788	11968.187970106551	0
1	7790	11968.712331801554	0
1	7793	11977.991247674799	0
1	7795	11979.977271943617	0
1	7798	11980.459382197659	0
1	7800	11985.622324533546	0
1	7803	11986.994386985329	0
1	7805	11992.514877856918	0
1	7808	11992.62713334544	1
1	7810	11996.178928624429	0
1	7813	11998.292917593212	0
1	7815	12001.568317365788	0
1	7818	12002.143006593024	0
1	7820	12003.925557866531	0
1	7823	12004.811609967318	1
1	7825	12006.44787231844	0
1	7828	12006.822712970057	1
1	7830	12011.015339049927	0
1	7833	12011.353746791854	0
1	7835	12016.869677257926	0
1	7838	12016.979478110745	0
1	7840	12017.539447641372	0
1	7842	12018.490264163315	0
1	7844	12022.610152506736	0
1	7847	12027.068590885709	0
1	7850	12033.000538806042	0
1	7853	12036.130448233974	0
1	7855	12039.382261910903	0
1	7857	12040.984081678274	0
1	7860	12042.88172926972	0
1	7862	12050.284545885191	0
1	7865	12057.218379320026	0
1	7868	12062.275626828615	0
1	7870	12065.561041199146	0
1	7873	12073.193463829768	1
1	7875	12079.090315435932	0
1	7878	12091.616488415698	0
1	7880	12094.152955926266	0
1	7882	12096.61953196033	0
1	7884	12098.072170033202	0
1	7886	12100.691700322179	0
1	7888	12108.024972818977	0
1	7890	12108.747269262619	0
1	7892	12108.884801255207	0
1	7895	12116.536545108714	0
1	7897	12125.499198128491	0
1	7900	12132.976712265224	0
1	7903	12134.387493794809	0
1	7906	12139.966215816999	0
1	7909	12146.729964117217	0
1	7911	12156.623042279421	0
1	7913	12157.113602418387	0
1	7915	12166.484404651529	0
1	7917	12179.25889496715	0
1	7920	12185.006210635554	0
1	7923	12190.290375350477	0
1	7926	12196.122850265467	0
1	7929	12197.217289697574	0
1	7931	12199.076419368137	0
1	7934	12210.332505217345	0
1	7937	12216.038099904735	0
1	7939	12219.026550706343	0
1	7942	12222.1098561914	0
1	7945	12225.710529697402	0
1	7947	12226.248830814943	0
1	7950	12228.93621696336	0
1	7953	12233.670585647234	0
1	7955	12238.532541912784	0
1	7957	12238.889750529222	0
1	7960	12241.095426538174	0
1	7962	12250.043230664578	0
1	7965	12251.925500074699	0
1	7968	12253.257937478094	0
1	7970	12256.914999318324	0
1	7973	12257.408537867931	0
1	7975	12260.911715842352	0
1	7977	12260.975597280512	0
1	7979	12265.529664327907	0
1	7981	12267.436776679127	0
1	7983	12278.542798485567	0
1	7986	12279.299197638124	0
1	7989	12279.438229237534	0
1	7991	12282.948221610343	0
1	7994	12287.249789713489	0
1	7997	12291.417269415372	0
1	7999	12307.711638044325	0
1	8002	12308.327065689408	0
1	8004	12311.198753720817	0
1	8007	12324.213261275162	0
1	8009	12325.952384169158	0
1	8012	12329.584783738085	0
1	8014	12333.525443923606	0
1	8017	12335.889398890173	0
1	8019	12337.228182996762	0
1	8022	12341.352833041811	0
1	8025	12342.695085923026	0
1	8027	12344.907670362558	0
1	8030	12349.781495650609	0
1	8032	12350.947588005124	0
1	8034	12357.244325686959	0
1	8036	12360.452071621246	0
1	8038	12362.900738382372	0
1	8040	12364.088386528232	0
1	8043	12370.730914880263	0
1	8046	12370.887203828349	0
1	8049	12376.865948312213	0
1	8051	12382.906221181968	0
1	8053	12387.822374725556	0
1	8055	12389.925673126172	0
1	8058	12394.849079744057	0
1	8061	12395.948847494625	0
1	8064	12401.57540132751	0
1	8067	12405.099206449583	0
1	8070	12405.159720108898	0
1	8072	12406.24862048849	0
1	8074	12413.916191796392	0
1	8076	12414.084808741666	0
1	8079	12414.212562088087	0
1	8082	12423.950254562108	0
1	8084	12424.96747240189	0
1	8087	12426.073753025492	0
1	8090	12427.930003123889	0
1	8092	12430.961081413534	0
1	8095	12433.538333234079	0
1	8098	12433.80115420614	0
1	8100	12434.025600174451	0
1	8103	12438.003734560337	0
1	8105	12445.407059871834	0
1	8108	12445.414758673626	0
1	8110	12446.68732402528	0
1	8112	12456.35352428495	0
1	8114	12459.997026326305	0
1	8117	12462.192502050767	0
1	8119	12465.771533980217	0
1	8121	12479.654265108274	0
1	8124	12483.713619984675	0
1	8126	12490.034979634589	0
1	8128	12494.252783431026	0
1	8130	12498.08566157009	0
1	8133	12501.937768900502	0
1	8135	12502.130843367185	0
1	8138	12506.18482510069	0
1	8141	12509.72043875665	0
1	8143	12511.576653714536	0
1	8146	12515.76270180597	0
1	8148	12522.86836677559	0
1	8151	12523.27318863361	0
1	8154	12526.771335481726	0
1	8157	12527.665636168369	0
1	8160	12529.112455430544	0
1	8163	12530.390802301013	0
1	8165	12535.124834500251	0
1	8168	12549.293116705041	1
1	8170	12549.911260358884	0
1	8173	12550.461284615763	0
1	8175	12552.827164186368	0
1	8177	12552.998142119565	0
1	8179	12553.89152063993	0
1	8182	12557.404380403469	0
1	8184	12558.332761699949	0
1	8187	12560.571992265091	0
1	8190	12564.379648676302	0
1	8192	12566.003089584271	0
1	8194	12568.9948656584	0
1	8196	12569.646689465751	0
1	8198	12571.505020529021	0
1	8201	12572.716989074485	0
1	8204	12573.328675868123	0
1	8207	12585.826131995656	0
1	8210	12588.671521755647	0
1	8212	12588.804253509586	0
1	8214	12595.60812928299	0
1	8217	12600.457855692464	0
1	8219	12609.005649256987	0
1	8222	12610.738946543682	0
1	8225	12611.817928809265	0
1	8227	12623.878581208047	0
1	8230	12624.308927083434	0
1	8232	12627.483004788752	0
1	8234	12628.515963664464	0
1	8236	12630.343881526773	0
1	8239	12636.494983375592	0
1	8241	12648.393106567348	0
1	8243	12656.43971271879	0
1	8245	12661.320025458845	0
1	8248	12676.845589025952	0
1	8251	12685.73265136091	0
1	8254	12693.634789534864	0
1	8256	12698.964662611911	0
1	8259	12699.762758701541	0
1	8262	12707.050962675906	0
1	8264	12713.192777139727	0
1	8267	12715.763660308706	0
1	8270	12715.967209255733	0
1	8273	12718.136298200069	1
1	8275	12730.614335498989	0
1	8278	12732.977595322939	0
1	8280	12733.855312586876	0
1	8283	12734.980146077765	0
1	8285	12735.630377067435	0
1	8287	12736.509565524119	0
1	8289	12746.739101824074	0
1	8292	12748.119554170872	0
1	8294	12756.188324762926	0
1	8296	12760.49828102501	0
1	8299	12768.327643286783	0
1	8301	12773.246181732064	0
1	8304	12779.61431254849	0
1	8307	12792.560954171055	0
1	8310	12797.825931771282	0
1	8313	12804.405160339397	1
1	8315	12804.969975734138	2
1	8317	12806.846823092203	3
1	8319	12811.376985963982	2
1	8322	12813.631320732981	1
1	8325	12814.194182510477	2
1	8327	12816.288641833399	3
1	8329	12818.68935593223	2
1	8332	12829.418227276324	3
1	8334	12836.420137233421	4
1	8336	12836.881211202054	3
1	8339	12840.465614445293	4
1	8341	12845.617794496153	3
1	8344	12847.09593661976	2
1	8347	12864.030668130678	3
1	8349	12870.383969774128	2
1	8352	12872.297791510324	1
1	8355	12874.892466229665	0
1	8358	12875.243979329087	0
1	8360	12877.522165638216	0
1	8362	12880.734689920873	0
1	8365	12886.665757204074	0
1	8367	12886.669026737575	0
1	8370	12888.438463650439	0
1	8372	12890.932136511424	0
1	8374	12897.697497874681	0
1	8376	12914.732041733236	0
1	8379	12914.938250586383	0
1	8382	12915.224060515594	0
1	8384	12926.205500306922	0
1	8387	12936.494176475863	0
1	8390	12936.8392868677	0
1	8392	12937.666483495627	0
1	8394	12937.92085460064	0
1	8397	12943.474184316283	0
1	8400	12947.533513207568	0
1	8402	12961.763483068704	0
1	8405	12978.424512732578	0
1	8408	12980.431869509324	1
1	8410	12981.81412830689	2
1	8412	12982.645012781555	3
1	8414	12982.966803363187	2
1	8417	12985.38780369034	3
1	8419	12986.372467463858	4
1	8421	12988.660369723899	5
1	8423	12990.026031715464	4
1	8426	12991.279779534685	5
1	8428	12995.46763965871	6
1	8430	12996.18770574004	7
1	8432	12998.311573742121	8
1	8434	12999.56438351779	7
1	8437	13000.532264199445	8
1	8439	13001.757980065063	9
1	8441	13002.69437670876	8
1	8444	13006.371150395272	9
1	8446	13011.911507341169	8
1	8449	13015.94058992413	7
1	8452	13017.843020372885	6
1	8455	13018.875970382379	5
1	8458	13019.502484179004	4
1	8461	13028.802572621637	5
1	8463	13032.073200835332	4
1	8466	13033.982004165601	5
1	8468	13041.759053548799	4
1	8471	13044.470737376922	5
1	8473	13044.639601540305	4
1	8476	13047.678585699248	3
1	8479	13047.735103195407	4
1	8481	13048.328223002468	5
1	8483	13050.913615464307	6
1	8485	13051.048124827233	7
1	8487	13052.805218312315	6
1	8490	13053.176214462936	7
1	8492	13055.822685583641	6
1	8495	13055.99868063403	5
1	8498	13057.490478273127	6
1	8500	13061.151753647358	7
1	8502	13066.729830755711	6
1	8505	13069.090763053275	5
1	8508	13070.584190560516	6
1	8510	13071.605760805459	5
1	8513	13073.467194078889	4
1	8516	13075.145503432008	3
1	8519	13077.592056122492	2
1	8522	13086.648836858709	3
1	8524	13088.564960520481	4
1	8526	13092.534248266869	5
1	8528	13095.527275000074	4
1	8531	13097.058220880445	3
1	8534	13103.349693375156	2
1	8537	13110.113924694592	1
1	8540	13113.557877836408	0
1	8543	13117.583781130418	0
1	8545	13126.700977705637	0
1	8547	13126.880525791967	0
1	8550	13131.178848588412	0
1	8553	13134.955243957311	0
1	8555	13136.487167631549	0
1	8558	13137.615490667109	1
1	8560	13137.974987219028	2
1	8562	13148.177281420543	3
1	8564	13149.999097199951	2
1	8567	13153.864714345164	3
1	8569	13159.59958534715	2
1	8572	13165.15401693504	3
1	8574	13167.503482185449	4
1	8576	13171.255224075671	3
1	8579	13172.720978370306	2
1	8582	13176.254698392182	3
1	8584	13177.164997484543	4
1	8586	13179.854645239201	3
1	8589	13180.132807076667	4
1	8591	13181.520589081769	3
1	8594	13182.394898897578	2
1	8597	13187.010173986831	1
1	8600	13187.664267751803	0
1	8603	13189.557815436039	1
1	8605	13192.016050174015	2
1	8607	13195.343428689526	3
1	8609	13202.535323766951	4
1	8611	13204.356801883653	3
1	8614	13206.230818881444	4
1	8616	13218.10984303381	3
1	8619	13218.312498926797	4
1	8621	13221.85829327493	3
1	8624	13222.979679908342	4
1	8626	13232.065343396168	3
1	8629	13243.585390706983	4
1	8631	13244.394119000807	3
1	8634	13254.252378947993	4
1	8636	13261.138353047856	3
1	8639	13264.176427533132	4
1	8641	13265.163494063664	5
1	8643	13272.435577871206	4
1	8646	13275.657713304092	3
1	8649	13278.537701572985	2
1	8652	13279.755415207699	3
1	8654	13279.955929740364	4
1	8656	13281.740362426106	5
1	8658	13281.848909069573	4
1	8661	13285.909148698236	3
1	8664	13288.731205005914	2
1	8667	13298.115794956114	1
1	8670	13303.911336407	2
1	8672	13310.884372807721	1
1	8675	13312.050844493406	2
1	8677	13312.191519024213	1
1	8680	13317.138075395963	0
1	8683	13323.290386760445	0
1	8685	13324.425944279444	0
1	8688	13324.492238215522	0
1	8690	13325.102568399943	0
1	8692	13325.990557848839	0
1	8694	13328.52249523473	0
1	8696	13334.527739053712	0
1	8699	13352.169777697258	0
1	8702	13355.974331811864	0
1	8704	13358.703099756134	0
1	8707	13361.296947578572	0
1	8710	13367.03281036436	0
1	8713	13370.040079480431	0
1	8715	13372.515259192266	0
1	8718	13384.346390263273	1
1	8720	13385.325634059464	0
1	8723	13388.842778530167	1
1	8725	13404.013151522737	2
1	8727	13419.207352373643	3
1	8729	13419.285567717545	2
1	8732	13420.946366796325	3
1	8734	13427.974530611963	2
1	8737	13436.336509209748	3
1	8739	13447.15451596776	2
1	8742	13449.674983574203	1
1	8745	13451.375286950196	0
1	8748	13465.157400645141	0
1	8750	13467.185439446609	0
1	8753	13468.754041264476	0
1	8755	13472.138823789497	0
1	8758	13473.075969575762	1
1	8760	13474.909869153348	2
1	8762	13478.389214789802	3
1	8764	13484.859961009655	2
1	8767	13485.721962688847	1
1	8770	13488.322584714279	2
1	8772	13490.447252570277	1
1	8775	13502.332069806784	0
1	8778	13509.993034508192	0
1	8780	13510.006262355914	0
1	8782	13511.789784296837	0
1	8784	13522.528433010348	0
1	8786	13522.61681604743	0
1	8788	13523.81241540265	0
1	8791	13529.122597101968	0
1	8793	13533.896951316552	0
1	8795	13536.938779789548	0
1	8797	13537.999535330271	0
1	8800	13542.215566581018	0
1	8802	13551.344340172057	0
1	8805	13563.779964411784	0
1	8807	13566.38018435302	0
1	8810	13568.522121809212	0
1	8813	13569.839584067573	0
1	8815	13596.174217544667	0
1	8818	13608.512550676582	0
1	8821	13610.431060913932	0
1	8824	13618.006132144337	0
1	8826	13623.801599451463	0
1	8829	13635.020215643018	0
1	8831	13636.311729016415	0
1	8834	13645.108864495579	0
1	8836	13646.614402222449	0
1	8839	13647.724806378239	0
1	8841	13653.53400929069	0
1	8844	13664.711890856592	0
1	8847	13671.681360008169	0
1	8849	13676.859537907884	0
1	8852	13685.417164599976	0
1	8854	13687.909457077982	0
1	8856	13688.378607032031	0
1	8859	13710.15009744236	0
1	8861	13711.124070337608	0
1	8863	13725.068233066892	0
1	8866	13727.136367817934	0
1	8868	13741.609935480504	0
1	8871	13744.281999931881	0
1	8874	13745.284269131067	0
1	8877	13753.217852701889	0
1	8880	13753.288615022671	0
1	8882	13755.1863281281	0
1	8884	13757.132009662116	0
1	8887	13759.340012586629	0
1	8890	13765.977540322256	0
1	8892	13769.812242260437	0
1	8894	13774.904344444226	0
1	8897	13775.233589453714	0
1	8900	13782.74890167715	0
1	8903	13786.474933607311	0
1	8905	13787.513059837782	0
1	8907	13797.340154927574	0
1	8909	13808.808701109844	0
1	8912	13813.390688268158	0
1	8914	13818.567003426024	0
1	8917	13819.472702593675	0
1	8920	13829.536897810896	0
1	8923	13833.777512340846	0
1	8925	13839.291372217798	0
1	8927	13855.994146566479	0
1	8930	13857.288376699232	0
1	8933	13858.263243073742	0
1	8935	13868.268638685161	0
1	8937	13872.752681957376	0
1	8940	13874.580626718442	0
1	8942	13879.292134929763	0
1	8945	13884.204024191045	0
1	8947	13896.380176586269	0
1	8950	13903.636632960493	0
1	8952	13905.527034054924	0
1	8955	13909.717033640038	0
1	8957	13916.02325596248	0
1	8960	13922.095320408858	0
1	8963	13928.773129511438	1
1	8965	13929.487344432195	0
1	8968	13930.760131960022	1
1	8970	13938.576473897021	0
1	8973	13943.501910633159	1
1	8975	13944.344139215146	0
1	8978	13951.817205854441	0
1	8980	13953.8677121268	0
1	8982	13964.526085627828	0
1	8984	13974.290953222975	0
1	8986	13975.260975402744	0
1	8988	13978.003563966248	0
1	8990	13978.993783482408	0
1	8993	13982.313256825753	0
1	8996	13988.107939738834	0
1	8998	13989.648410984018	0
1	9001	13995.114841236976	0
1	9004	13997.990690097755	0
1	9006	14007.890829226302	0
1	9008	14013.473632499102	0
1	9010	14027.8373068632	0
1	9013	14030.668799692218	0
1	9016	14038.97566346876	0
1	9019	14041.867389047443	0
1	9021	14046.742740839898	0
1	9024	14055.667401914823	0
1	9027	14059.322242694334	0
1	9029	14059.900723297278	0
1	9032	14060.287220295739	0
1	9035	14065.080204048573	0
1	9037	14066.273527272903	0
1	9040	14068.184052904631	0
1	9042	14069.215066658846	0
1	9045	14073.667461040907	0
1	9048	14074.526237750172	0
1	9050	14076.907920067764	0
1	9053	14079.952367011772	0
1	9055	14084.450759911285	0
1	9057	14085.069034576182	0
1	9059	14090.766658102424	0
1	9061	14091.273262619936	0
1	9064	14100.994431407021	0
1	9066	14105.391742121537	0
1	9068	14105.917150165271	0
1	9071	14120.829981626177	0
1	9073	14127.471107939171	0
1	9076	14127.701815998041	0
1	9079	14136.311536172309	0
1	9081	14137.650781083864	0
1	9084	14143.289243413503	0
1	9087	14145.827178465584	0
1	9089	14164.690814749986	0
1	9092	14171.753106436862	0
1	9094	14173.306464621216	0
1	9096	14175.424236858668	0
1	9099	14181.23102009119	0
1	9101	14204.955167752088	0
1	9103	14205.842310431251	0
1	9106	14213.403572617807	0
1	9109	14214.686096900773	0
1	9112	14216.581378169933	0
1	9114	14224.294783053405	0
1	9116	14236.060922738942	0
1	9119	14240.432282569225	0
1	9121	14240.451469482299	0
1	9124	14241.302557709493	0
1	9127	14246.243424473023	0
1	9130	14247.047265345856	0
1	9132	14253.940407047094	0
1	9134	14262.701968259022	0
1	9137	14266.982692206145	0
1	9139	14274.405248280665	0
1	9142	14278.472195753574	0
1	9144	14280.753717611797	0
1	9147	14297.131396079027	0
1	9150	14304.289674793979	0
1	9152	14304.457836165864	0
1	9154	14305.533264954232	0
1	9156	14309.611672645046	0
1	9159	14312.089473907882	0
1	9162	14313.353407442523	0
1	9164	14313.558414265717	0
1	9166	14333.677213649096	0
1	9169	14342.00053543459	0
1	9172	14342.561008732217	0
1	9174	14345.084905925895	0
1	9176	14345.352368712655	0
1	9178	14345.812130760537	0
1	9181	14350.413236950759	0
1	9184	14358.754344025323	0
1	9187	14363.35363489576	0
1	9189	14366.582510255434	0
1	9191	14370.908484580799	0
1	9194	14374.592115911198	0
1	9196	14379.41515876084	0
1	9198	14379.970335815802	0
1	9201	14381.23599154882	0
1	9204	14382.51002899208	0
1	9206	14383.646235119383	0
1	9209	14390.905586396765	0
1	9211	14392.148112786755	0
1	9213	14394.366506996812	0
1	9216	14397.572351391949	0
1	9219	14398.212415438811	0
1	9222	14398.560337184326	0

