version 2
run POLICY_1-2-20191213-12:40:09-1214
attr configname POLICY_1
attr datetime 20191213-12:40:09
attr experiment POLICY_1
attr inifile omnetpp.ini
attr iterationvars ""
attr iterationvarsf ""
attr measurement ""
attr network Carrefour
attr processid 1214
attr repetition 2
attr replication #2
attr resultdir results
attr runnumber 2
attr seedset 2
param **.policy 1
param **.delta 0s
param **.tillsNumber 7
param **.capacity 0.3
param **.meanInterArrivalTime 8s
param **.meanItemsInACart 12
param **.interArrivalDistribution 0
param **.itemsInCartDistribution 0

vector 0 Carrefour.decider stats_numCustomers:vector ETV
attr "" ""
attr source numCustomers
vector 1 Carrefour.decider stats_numCustomersQueue:vector ETV
attr "" ""
attr source numCustomersQueue
0	772	1209.888099292794	4
0	774	1218.205906355129	3
0	776	1219.186022965157	2
0	778	1223.633315572225	3
0	781	1224.448984650947	2
0	783	1227.24937238849	3
0	786	1230.904740794845	4
0	789	1242.584544992666	5
0	792	1242.759391418513	6
0	795	1243.157403201109	7
0	798	1246.715243441752	6
0	800	1249.040404529097	7
0	803	1249.971040343683	8
0	805	1252.90498886451	9
0	807	1253.777893579267	8
0	810	1258.668043464412	7
0	813	1262.12168113591	8
0	815	1276.446892259232	9
0	817	1282.230033151523	10
0	819	1303.432276972976	11
0	821	1309.800903100201	10
0	824	1310.214633194796	11
0	826	1311.318945684921	12
0	828	1315.791431315192	11
0	831	1320.499661750131	10
0	834	1326.167127698089	11
0	836	1332.779070169409	10
0	839	1332.87006477497	9
0	842	1337.030275423506	8
0	845	1337.898908298099	7
0	848	1340.396393796213	8
0	850	1342.976775789161	7
0	853	1345.747740634238	8
0	855	1350.465827992558	7
0	858	1356.372253879072	6
0	860	1357.728366455182	5
0	862	1358.110179396263	6
0	865	1359.340679685584	5
0	867	1369.123781730578	4
0	869	1371.402112313692	5
0	872	1371.539744616263	4
0	874	1372.833728664816	3
0	876	1380.762397167556	4
0	879	1386.473174919626	5
0	882	1392.110912525603	4
0	884	1393.09945197815	3
0	886	1394.881840770568	4
0	889	1395.379702711378	3
0	891	1399.339970441051	2
0	893	1415.789656234978	3
0	896	1431.316094904696	2
0	898	1437.943719895481	3
0	901	1446.738887140719	4
0	904	1448.893975344099	5
0	907	1450.182153071928	6
0	910	1451.739101978614	5
0	912	1453.605280525764	4
0	914	1455.436057067262	5
0	917	1459.063471942691	6
0	920	1468.013946406484	5
0	922	1480.046743668358	6
0	925	1481.465553599922	5
0	927	1487.983796925002	4
0	929	1496.112641063149	5
0	932	1497.67500047211	6
0	935	1501.124774899092	7
0	938	1502.453478421809	8
0	940	1504.129630270411	9
0	942	1506.903439261372	8
0	945	1516.504576930313	7
0	948	1517.424209711216	6
0	950	1524.760683745181	5
0	952	1526.597650740225	4
0	954	1530.570973467886	3
0	956	1531.586090884853	4
0	959	1536.704782206811	5
0	962	1539.797328238664	6
0	965	1540.621414394869	5
0	967	1543.788256598718	6
0	970	1555.926218326837	5
0	972	1558.967763671149	4
0	974	1561.146484807328	5
0	977	1565.297066739557	4
0	979	1568.864660746265	5
0	982	1570.417238961213	4
0	984	1571.060344835012	3
0	986	1575.170953433785	4
0	989	1579.763438400884	5
0	992	1583.473781191373	6
0	995	1585.892597422581	7
0	998	1587.07063449058	8
0	1000	1591.075618309733	7
0	1003	1591.325288385978	8
0	1005	1592.280155613838	9
0	1007	1595.149627752327	8
0	1010	1596.059004765148	7
0	1013	1596.370177963288	6
0	1015	1596.624660521073	7
0	1018	1597.224891122304	8
0	1020	1598.277910561739	7
0	1023	1606.730352507825	6
0	1025	1615.841705317329	7
0	1028	1617.559528595559	8
0	1030	1634.650007867117	7
0	1033	1642.304036642717	6
0	1035	1648.703671882931	7
0	1038	1648.727118973839	8
0	1040	1651.761763097526	7
0	1043	1655.734427407436	6
0	1045	1656.543279669509	7
0	1048	1657.776674181273	6
0	1050	1658.739791791436	5
0	1052	1673.294385656987	6
0	1055	1673.989174529154	7
0	1058	1683.78853194307	6
0	1060	1684.361427035369	5
0	1062	1684.782512484512	4
0	1064	1689.435953115392	3
0	1066	1696.123237270159	4
0	1069	1700.314887895739	3
0	1071	1706.687251761392	4
0	1074	1712.274910964749	5
0	1077	1713.973671212866	4
0	1079	1721.357587614889	5
0	1082	1732.368175534606	6
0	1085	1740.826789083996	5
0	1087	1746.358826942553	6
0	1090	1751.716945940661	7
0	1093	1751.82844163282	6
0	1095	1755.131902454225	7
0	1098	1755.163331286321	8
0	1100	1755.648809050322	9
0	1102	1760.612881881105	10
0	1104	1766.165767044707	9
0	1107	1768.183208406228	10
0	1109	1769.440765927031	11
0	1111	1770.500012958857	12
0	1113	1772.665663030421	11
0	1116	1773.454558540944	12
0	1118	1782.272381011218	11
0	1121	1784.855822382763	12
0	1123	1791.75586691678	11
0	1126	1796.049629931385	12
0	1128	1797.910665041087	11
0	1131	1798.306606295754	10
0	1134	1801.365174940608	9
0	1137	1808.705119170711	10
0	1139	1814.046180280607	9
0	1142	1817.287841951885	8
0	1145	1819.968839625764	9
0	1147	1824.171303302154	10
0	1149	1831.287692749702	9
0	1152	1844.132104353944	10
0	1154	1849.896502207588	9
0	1157	1855.212715904428	8
0	1160	1855.372431284594	7
0	1163	1857.701676940101	6
0	1165	1860.539691697851	5
0	1167	1860.693706861984	4
0	1169	1867.162457410778	5
0	1172	1872.381294827958	4
0	1174	1881.635866909339	3
0	1176	1888.63193566052	4
0	1179	1890.159087251847	5
0	1182	1890.914818696442	6
0	1185	1913.774535384211	7
0	1188	1915.512868145733	8
0	1190	1920.524102023674	9
0	1192	1922.494435811799	8
0	1195	1927.118690440139	9
0	1197	1927.345310701757	8
0	1200	1938.63603713845	9
0	1202	1938.719888422555	10
0	1204	1939.287689489815	9
0	1207	1947.407267187207	8
0	1210	1947.849606508787	7
0	1213	1949.901002599885	8
0	1215	1951.990849615952	9
0	1217	1959.507519762955	8
0	1220	1972.016174975178	7
0	1223	1983.786261271236	8
0	1225	1984.086726192222	9
0	1227	1987.65418347584	8
0	1230	1989.649181001837	7
0	1233	1995.833578211291	6
0	1235	2003.913715054149	5
0	1237	2006.175208917052	4
0	1239	2008.367139593156	3
0	1241	2013.064870093831	4
0	1244	2013.7701219812	5
0	1247	2014.097457319813	6
0	1250	2017.238409075801	5
0	1252	2021.280900745928	4
0	1254	2022.782293820467	5
0	1257	2022.911095350679	6
0	1260	2029.918882074492	7
0	1263	2033.740847979325	6
0	1265	2036.188540873731	7
0	1268	2036.652660038502	6
0	1270	2039.633298842822	5
0	1272	2039.933447812571	4
0	1274	2046.570795796914	5
0	1277	2046.846513897229	6
0	1280	2055.514563156055	5
0	1282	2064.647902295255	4
0	1284	2065.625217475051	5
0	1287	2074.196727612058	6
0	1290	2074.331599441794	7
0	1293	2076.810708182263	6
0	1295	2078.185163595234	5
0	1297	2080.455666919336	6
0	1300	2083.13169544133	5
0	1302	2086.434186575743	4
0	1304	2098.615979386274	5
0	1307	2099.639311313829	4
0	1309	2107.402279673522	5
0	1312	2110.540423608628	4
0	1314	2113.010117604807	5
0	1317	2117.667841441329	6
0	1320	2118.543828195617	5
0	1322	2122.510813381704	4
0	1324	2125.300186167292	5
0	1327	2127.845002584346	6
0	1330	2129.002856699934	7
0	1333	2131.622857945849	6
0	1335	2132.120674769199	5
0	1337	2137.054808263996	4
0	1339	2137.574149826554	3
0	1341	2141.055166866968	2
0	1343	2152.915920459305	3
0	1346	2158.024708541002	4
0	1349	2162.671364613114	3
0	1351	2168.448262756232	4
0	1354	2169.113266573607	3
0	1356	2176.501695977969	4
0	1359	2176.552448145446	5
0	1362	2180.05802510206	4
0	1364	2180.112477616841	3
0	1366	2180.59058454046	2
0	1368	2181.967295205481	3
0	1371	2182.804206101253	4
0	1374	2187.107101960082	3
0	1376	2204.241572078322	4
0	1379	2208.921024103483	3
0	1381	2211.706808972073	2
0	1383	2212.23226323217	3
0	1386	2216.815747938305	2
0	1388	2229.094307589882	1
0	1390	2234.209981054884	2
0	1393	2236.927813810955	3
0	1396	2242.472374546221	4
0	1399	2242.903628986448	3
0	1401	2246.661252849944	4
0	1404	2247.931351802989	3
0	1406	2250.877373792187	4
0	1409	2263.04626750302	5
0	1412	2276.367442006999	6
0	1415	2279.864890708866	7
0	1418	2285.666480662535	8
0	1420	2305.520030450349	7
0	1423	2306.47533650963	8
0	1425	2309.891023354171	7
0	1428	2311.857218147598	8
0	1430	2311.970327684827	7
0	1433	2314.437754712863	6
0	1435	2317.3667789662	5
0	1437	2319.824146593264	4
0	1439	2322.053871730599	5
0	1442	2329.528667825182	4
0	1444	2338.399806606931	5
0	1447	2344.822189442716	6
0	1450	2350.083453943216	5
0	1452	2363.091650659137	6
0	1455	2364.370458919612	5
0	1457	2364.688676762654	6
0	1460	2365.887652331301	7
0	1463	2370.103175699148	8
0	1465	2379.974022224285	7
0	1468	2380.298801470512	6
0	1470	2380.564655760093	7
0	1473	2381.962696792351	6
0	1475	2386.896720773502	5
0	1477	2392.078227656389	6
0	1480	2393.254178258742	5
0	1482	2396.9412742103	4
0	1484	2398.743837217151	5
0	1487	2403.999367780775	4
0	1489	2433.650015934495	3
0	1491	2436.249484230005	4
0	1494	2441.827727030909	3
0	1496	2443.845661312575	2
0	1498	2450.445087406832	1
0	1500	2453.979843596477	2
0	1503	2454.591889283247	3
0	1506	2457.633502814193	4
0	1509	2458.791421278966	5
0	1512	2460.341574770172	4
0	1514	2462.182184050599	3
0	1516	2470.006111785913	4
0	1519	2472.492259069575	3
0	1521	2480.784077553898	4
0	1524	2483.403580642659	5
0	1527	2497.759191247132	6
0	1530	2498.778010852904	7
0	1533	2499.52171551722	8
0	1535	2501.581328926757	9
0	1537	2504.793708516678	8
0	1540	2509.01272836309	7
0	1543	2515.729639781434	8
0	1545	2520.088166940933	7
0	1548	2527.626397711715	8
0	1550	2539.988054835789	9
0	1552	2541.031259737569	8
0	1555	2542.296255705551	7
0	1558	2546.756258180392	6
0	1560	2552.384536095882	7
0	1563	2561.708228445365	8
0	1565	2561.710003349459	7
0	1568	2570.123395994424	8
0	1570	2573.446627725658	9
0	1572	2573.540521958052	8
0	1575	2576.385240789894	9
0	1577	2581.088919748385	10
0	1579	2583.815421368472	9
0	1582	2588.349024418718	8
0	1585	2591.687480939538	7
0	1588	2614.775743264477	6
0	1590	2615.73400000556	5
0	1592	2618.135134454388	4
0	1594	2626.186748543763	3
0	1596	2628.71915035134	4
0	1599	2632.36904356129	5
0	1602	2635.161334907657	6
0	1605	2636.3757353441	5
0	1607	2649.845323902127	6
0	1610	2649.887570537816	5
0	1612	2653.318151226988	4
0	1614	2655.179145789291	3
0	1616	2656.857709168482	2
0	1618	2658.668991699655	3
0	1621	2661.852803149416	4
0	1624	2662.416535547577	3
0	1626	2664.307836555345	4
0	1629	2667.42348778794	5
0	1632	2671.814005674201	6
0	1635	2676.740089660074	5
0	1637	2677.497610425709	4
0	1639	2693.716827718095	5
0	1642	2694.269358256304	4
0	1644	2698.754435077366	3
0	1646	2710.486463628115	4
0	1649	2711.722312535999	3
0	1651	2713.285423882728	2
0	1653	2730.691027929523	3
0	1656	2737.956772908054	4
0	1659	2765.419170644687	3
0	1661	2765.663260960021	4
0	1664	2768.296989974036	5
0	1667	2772.72426592025	4
0	1669	2777.783697370766	3
0	1671	2781.480297470444	4
0	1674	2792.546433519441	5
0	1677	2793.273849311893	6
0	1680	2800.533507141826	5
0	1682	2801.798897511012	4
0	1684	2803.681498737905	5
0	1687	2803.801918923469	4
0	1689	2804.443992985388	5
0	1692	2813.807917955355	6
0	1695	2819.891992517378	5
0	1697	2820.322884296253	6
0	1700	2824.947176091146	5
0	1702	2825.129188810611	6
0	1705	2829.598474367356	5
0	1707	2834.511169148849	4
0	1709	2840.642940526007	5
0	1712	2845.942396723037	6
0	1715	2846.532850786755	5
0	1717	2855.803888220478	4
0	1719	2858.906048999714	3
0	1721	2863.189374788778	4
0	1724	2867.345797742728	5
0	1727	2870.209084253074	4
0	1729	2875.449282857226	5
0	1732	2889.286993778517	4
0	1734	2889.525568113766	3
0	1736	2899.736788611024	4
0	1739	2921.792250141388	3
0	1741	2924.582796562641	2
0	1743	2924.689864420808	3
0	1746	2924.822832297898	4
0	1749	2926.140750295673	5
0	1752	2929.148388629561	6
0	1755	2931.152310565802	7
0	1758	2940.169789195254	6
0	1760	2947.334582782142	5
0	1762	2953.821619036057	4
0	1764	2968.087759237429	5
0	1767	2971.321428389262	6
0	1770	2973.145798675557	5
0	1772	2988.557672860749	6
0	1775	2989.037686502014	5
0	1777	2990.93204657839	6
0	1780	2991.093197718245	7
0	1783	2994.086769925786	6
0	1785	2994.087313719112	7
0	1788	2994.133043193578	6
0	1790	2994.955083090941	7
0	1793	2995.96363088971	8
0	1795	2996.754070780538	9
0	1797	2998.263019705812	8
0	1800	3000.518454856729	9
0	1802	3000.726701919047	8
0	1805	3002.990216184844	9
0	1807	3003.23202612842	10
0	1809	3003.421121501361	9
0	1812	3004.966810283794	10
0	1814	3010.038423472063	9
0	1817	3011.140553665753	10
0	1819	3011.289671654249	9
0	1822	3015.101622218114	8
0	1825	3015.149355988957	9
0	1827	3015.907956854221	8
0	1830	3015.947356510385	7
0	1833	3018.652675694655	6
0	1835	3019.801013882572	5
0	1837	3026.591958156253	4
0	1839	3028.335646692392	3
0	1841	3030.39306752796	2
0	1843	3038.474128542494	3
0	1846	3041.997578335015	2
0	1848	3050.938480843674	3
0	1851	3054.105085073067	2
0	1853	3055.650583048374	3
0	1856	3056.388475292762	4
0	1859	3061.42269379532	3
0	1861	3064.217065524641	4
0	1864	3068.013593900511	5
0	1867	3075.583725333517	6
0	1870	3079.5600020436	7
0	1873	3086.409236174203	6
0	1875	3087.724450738479	5
0	1877	3100.9360470211	4
0	1879	3101.229905778735	5
0	1882	3103.434304907031	4
0	1884	3104.110406620993	5
0	1887	3111.387243188522	4
0	1889	3114.720104320385	5
0	1892	3119.761971221503	6
0	1895	3126.468885467329	5
0	1897	3133.697543530687	6
0	1900	3136.214645801151	5
0	1902	3145.238371632977	4
0	1904	3150.512197277731	3
0	1906	3171.088317341284	4
0	1909	3171.662462017204	3
0	1911	3174.362288222323	4
0	1914	3180.66638408603	3
0	1916	3185.365074311646	4
0	1919	3193.789348364879	3
0	1921	3204.406390593061	4
0	1924	3205.107431933079	5
0	1927	3206.746023360347	6
0	1930	3209.353408443352	5
0	1932	3214.389644843348	6
0	1935	3218.583394392548	7
0	1938	3220.320995957839	8
0	1940	3220.882931078092	7
0	1943	3226.312158183996	6
0	1945	3231.019566105052	7
0	1948	3231.916540970723	6
0	1950	3234.854624470096	7
0	1953	3235.552916392686	6
0	1955	3238.099822029167	7
0	1958	3242.262649463941	6
0	1960	3243.402591237506	5
0	1962	3245.923942095205	4
0	1964	3246.232538331729	3
0	1966	3261.665784928583	4
0	1969	3271.969254746874	3
0	1971	3276.463763816333	2
0	1973	3279.047664793377	3
0	1976	3280.974849999416	2
0	1978	3281.194655007929	3
0	1981	3291.879410469398	2
0	1983	3292.469600714076	1
0	1985	3296.961123931134	2
0	1988	3301.124889355534	3
0	1991	3302.568609507336	4
0	1994	3304.082205233046	3
0	1996	3313.26088372337	2
0	1998	3327.88161500863	1
0	2000	3328.987619196008	0
0	2002	3331.088696214286	1
0	2005	3333.187368141207	2
0	2008	3333.546698627447	3
0	2011	3333.977575549277	4
0	2014	3334.063951529007	3
0	2016	3336.664094619728	4
0	2019	3343.907794846799	3
0	2021	3348.17752570605	2
0	2023	3348.18051268038	1
0	2025	3352.320235073181	2
0	2028	3354.843008392689	3
0	2031	3357.333620400601	2
0	2033	3358.157742368812	3
0	2036	3363.129561917048	4
0	2039	3367.126626241573	5
0	2042	3371.550818320623	6
0	2045	3374.072510561556	7
0	2048	3376.167407589083	6
0	2050	3379.031835977221	5
0	2052	3385.345716529439	6
0	2055	3386.397781922519	7
0	2058	3388.679619628955	6
0	2060	3388.715238129391	7
0	2063	3392.433637299867	6
0	2065	3392.980756582365	5
0	2067	3393.599510625251	6
0	2070	3405.366488103184	5
0	2072	3407.404384084286	4
0	2074	3409.522001097142	5
0	2077	3411.662078240109	6
0	2080	3417.712956474733	5
0	2082	3418.748837917883	6
0	2085	3420.03562216863	5
0	2087	3421.129069551953	4
0	2089	3425.374220208933	5
0	2092	3425.707782809951	4
0	2094	3428.511849582358	3
0	2096	3435.226202160459	4
0	2099	3437.039048978548	5
0	2102	3437.244888133505	6
0	2105	3442.974368927351	7
0	2108	3444.147118473311	8
0	2110	3448.383767767323	7
0	2113	3448.72898953191	6
0	2115	3455.647801392474	5
0	2117	3467.849504294312	6
0	2120	3474.173923373766	7
0	2123	3475.931493614581	6
0	2125	3477.893526225165	7
0	2128	3480.322307701793	8
0	2130	3483.640597247763	7
0	2133	3489.705912008807	6
0	2135	3504.993413058009	7
0	2138	3506.207134581615	6
0	2140	3506.624664977162	7
0	2143	3507.095924076918	8
0	2145	3508.010158263667	9
0	2147	3511.580351737385	8
0	2150	3512.131766116866	7
0	2153	3513.991587334726	6
0	2155	3514.377005718976	7
0	2158	3515.136700420123	8
0	2160	3515.4465008287	7
0	2163	3522.462977091776	8
0	2165	3524.909384684051	7
0	2168	3526.033562259768	6
0	2170	3528.460961251407	7
0	2173	3532.357734051622	6
0	2175	3544.820624926958	5
0	2177	3553.160900538706	4
0	2179	3554.570549058714	5
0	2182	3556.398927799393	6
0	2185	3564.409284856814	5
0	2187	3568.459185977546	4
0	2189	3576.022571890003	3
0	2191	3577.140836658067	4
0	2194	3579.913058163181	5
0	2197	3585.015895310588	4
0	2199	3585.634664804273	5
0	2202	3587.305320888552	4
0	2204	3606.376785785843	5
0	2207	3610.226844582082	4
0	2209	3617.776606313334	5
0	2212	3619.368835166657	6
0	2215	3640.201587956463	5
0	2217	3649.17493652273	6
0	2220	3657.360621099882	7
0	2223	3660.559988199491	6
0	2225	3661.783919735786	5
0	2227	3668.03024457714	6
0	2230	3668.878021138763	7
0	2233	3692.923604874472	6
0	2235	3693.503279199011	7
0	2238	3698.087313386416	8
0	2240	3698.804712448888	7
0	2243	3704.971609987915	6
0	2245	3712.682153176323	5
0	2247	3712.943006277788	4
0	2249	3715.729985187964	3
0	2251	3715.783312232973	2
0	2253	3720.448471734002	3
0	2256	3726.05136357772	2
0	2258	3731.136655059767	3
0	2261	3736.395300142847	4
0	2264	3748.237930340793	3
0	2266	3750.48241395588	4
0	2269	3759.023971652862	3
0	2271	3759.110403028389	4
0	2274	3763.052328611945	5
0	2277	3764.638469288508	6
0	2280	3765.518049091067	5
0	2282	3765.587605371445	6
0	2285	3769.070620076004	5
0	2287	3769.777010921601	4
0	2289	3770.183744139718	5
0	2292	3776.576700094511	6
0	2295	3776.592019009083	5
0	2297	3778.805704039245	4
0	2299	3786.495366983784	3
0	2301	3792.663441438057	4
0	2304	3797.977314443945	3
0	2306	3802.197077238925	2
0	2308	3805.225201299613	3
0	2311	3812.112656268811	4
0	2314	3813.444800895243	3
0	2316	3824.647874036235	2
0	2318	3861.903835066168	3
0	2321	3864.525798793965	4
0	2324	3868.931933146943	3
0	2326	3872.308826755673	2
0	2328	3878.982791819697	3
0	2331	3879.932261735127	2
0	2333	3880.030855871989	3
0	2336	3882.489841784335	2
0	2338	3886.055262876685	3
0	2341	3888.165479068187	4
0	2344	3892.427882124902	5
0	2347	3893.496065323278	6
0	2350	3894.012944441802	7
0	2353	3896.143236484347	8
0	2355	3897.888727287151	9
0	2357	3901.759341246627	10
0	2359	3904.77802556291	9
0	2362	3906.597930065992	10
0	2364	3906.94869696857	11
0	2366	3910.391651414884	12
0	2368	3921.033471030695	11
0	2371	3924.988096502573	12
0	2373	3926.610119274626	13
0	2375	3927.078769094216	12
0	2378	3927.894100643939	11
0	2381	3930.663890350697	10
0	2384	3930.747689731234	11
0	2386	3932.750632569598	10
0	2389	3947.001237504903	9
0	2392	3947.034205996488	10
0	2394	3947.353115181028	9
0	2397	3951.260163716442	8
0	2400	3953.737166261139	9
0	2402	3954.497469416703	8
0	2405	3957.213120470327	9
0	2407	3960.238059772368	8
0	2410	3963.873171535732	7
0	2413	3964.535630875722	6
0	2415	3965.300877671161	7
0	2418	3966.745016194106	8
0	2420	3967.885288904879	9
0	2422	3970.634680112799	10
0	2424	3971.325312141457	11
0	2426	3978.16851459993	10
0	2429	3982.283251025943	11
0	2431	3983.645119499854	12
0	2433	4007.88250881202	13
0	2435	4008.29938388381	12
0	2438	4008.805860781818	11
0	2441	4012.400651329477	10
0	2444	4016.782008378975	9
0	2447	4027.531901501902	8
0	2450	4028.325102555269	7
0	2453	4042.16154817351	8
0	2455	4042.30401878697	7
0	2458	4050.857902205402	8
0	2460	4051.283582985	7
0	2463	4051.38726265205	6
0	2465	4051.74102282477	7
0	2468	4052.990761870837	6
0	2470	4053.591895807508	5
0	2472	4054.830613853329	6
0	2475	4056.672677725299	5
0	2477	4059.225148755932	6
0	2480	4063.611950601725	5
0	2482	4063.908243225885	4
0	2484	4064.848464199409	5
0	2487	4066.807718262266	4
0	2489	4081.487987731428	5
0	2492	4082.248405597266	6
0	2495	4089.270268462925	7
0	2498	4097.273965756471	8
0	2500	4097.415479383342	9
0	2502	4100.884564131617	8
0	2505	4102.608827424952	7
0	2508	4103.541569329291	8
0	2510	4110.755471672651	7
0	2513	4114.625465626765	6
0	2515	4121.105963143107	7
0	2518	4121.733626653394	6
0	2520	4123.896105811116	7
0	2523	4127.774090273693	8
0	2525	4134.587175591046	9
0	2527	4136.055964587815	10
0	2529	4138.539278819167	9
0	2532	4140.165256228833	10
0	2534	4143.455268745599	11
0	2536	4151.842761025155	10
0	2539	4152.408285423925	9
0	2542	4156.254894751655	10
0	2544	4158.15802848285	9
0	2547	4163.469031156486	10
0	2549	4166.98478505932	11
0	2551	4167.292592893451	12
0	2553	4170.231070522511	13
0	2555	4178.478143256004	14
0	2557	4179.627924884834	15
0	2559	4185.622094502931	14
0	2562	4187.162975998316	15
0	2564	4188.40382661866	14
0	2567	4190.001261189729	13
0	2570	4192.016664529173	12
0	2573	4197.00840387407	11
0	2576	4204.338187454628	10
0	2579	4204.728417208187	9
0	2582	4204.749532886934	10
0	2584	4206.827930092653	11
0	2586	4208.377898532075	10
0	2589	4211.005123728952	11
0	2591	4212.286752149088	10
0	2594	4212.632558736633	9
0	2597	4215.446378236765	10
0	2599	4219.118335128705	9
0	2602	4231.471821600102	10
0	2604	4233.192381089868	11
0	2606	4238.468639933458	10
0	2609	4240.270542282892	9
0	2612	4243.67343038213	10
0	2614	4243.699752115762	9
0	2617	4243.845915254923	10
0	2619	4246.061290806168	9
0	2622	4246.257912557669	8
0	2625	4250.517723926082	7
0	2628	4251.106610553762	8
0	2630	4252.161018070398	7
0	2633	4258.121629903209	8
0	2635	4259.104480810428	7
0	2638	4261.807769382254	6
0	2640	4271.628023996718	7
0	2643	4276.343469554872	8
0	2645	4281.163167464945	7
0	2648	4283.574314352067	6
0	2650	4285.09860178991	7
0	2653	4286.486215480671	6
0	2655	4298.938202885298	5
0	2657	4299.862752813486	6
0	2660	4301.139367858341	7
0	2663	4302.915078352542	8
0	2665	4304.001606916309	7
0	2668	4310.667743765079	8
0	2670	4314.597198651313	7
0	2673	4315.314854146844	8
0	2675	4315.886559514976	9
0	2677	4323.319603420978	8
0	2680	4324.694388903886	9
0	2682	4331.669322006426	8
0	2685	4343.053259004197	9
0	2687	4343.619511570802	10
0	2689	4348.46578941487	9
0	2692	4355.901978421583	10
0	2694	4359.414194473711	11
0	2696	4359.445235719425	12
0	2698	4359.713784374404	11
0	2701	4363.744183695479	10
0	2704	4368.713058867064	11
0	2706	4370.913453324142	10
0	2709	4377.616226480878	9
0	2712	4390.402615463447	10
0	2714	4392.651677570507	11
0	2716	4394.618023979338	12
0	2718	4395.202446128255	11
0	2721	4398.238192441519	12
0	2723	4400.700353432894	13
0	2725	4403.265807394821	12
0	2728	4407.590299605906	13
0	2730	4424.646397547589	14
0	2732	4425.397703013191	13
0	2735	4428.859810097537	14
0	2737	4433.541255634595	13
0	2740	4437.911565037519	12
0	2743	4449.527127480715	11
0	2746	4451.003112345966	10
0	2749	4452.496884874995	9
0	2752	4454.174864277059	10
0	2754	4458.447796177901	9
0	2757	4468.245481753578	8
0	2760	4470.563836298924	7
0	2763	4470.607781366656	6
0	2765	4470.925233326392	7
0	2768	4472.174547560209	6
0	2770	4473.131565230047	7
0	2773	4473.705629965994	6
0	2775	4478.034415191024	5
0	2777	4478.380548361622	4
0	2779	4479.068565953874	3
0	2781	4488.853686782441	4
0	2784	4494.255141570672	5
0	2787	4503.838508408794	4
0	2789	4508.620167914885	5
0	2792	4510.285199971346	4
0	2794	4511.499021040669	3
0	2796	4516.098938156542	2
0	2798	4518.495232916071	1
0	2800	4519.416477150818	2
0	2803	4523.861264382574	3
0	2806	4529.48685116492	4
0	2809	4531.0523474897	3
0	2811	4531.173903476033	4
0	2814	4531.442849735082	5
0	2817	4533.309782130552	4
0	2819	4537.975727383865	3
0	2821	4539.590835270572	4
0	2824	4540.695054556322	3
0	2826	4541.445918715118	4
0	2829	4545.917016869508	5
0	2832	4548.057572383667	4
0	2834	4556.534072109785	3
0	2836	4557.50709734859	2
0	2838	4560.63055820546	3
0	2841	4563.631494136769	2
0	2843	4564.03673593504	1
0	2845	4566.269192466676	2
0	2848	4581.245640908115	3
0	2851	4586.5806825081	2
0	2853	4587.036550742827	1
0	2855	4589.668289542162	2
0	2858	4597.505737937995	1
0	2860	4604.191682771283	0
0	2862	4619.172914165588	1
0	2865	4641.672408951796	2
0	2868	4643.641308282706	3
0	2871	4645.57221130324	2
0	2873	4656.853799423385	3
0	2876	4667.249949898603	2
0	2878	4671.151820749572	1
0	2880	4683.771627077652	2
0	2883	4684.823589740099	3
0	2886	4685.858981401683	2
0	2888	4691.510129154183	3
0	2891	4692.626707917387	2
0	2893	4707.489958778939	1
0	2895	4710.551234264924	2
0	2898	4719.552713986222	1
0	2900	4733.123096533992	2
0	2903	4742.16558806494	3
0	2906	4743.001357977005	4
0	2909	4746.079898221619	5
0	2912	4746.12719326697	4
0	2914	4746.206503696574	3
0	2916	4756.924038423974	2
0	2918	4772.158144234124	3
0	2921	4774.114762802411	2
0	2923	4779.884973922169	1
0	2925	4782.632603159493	2
0	2928	4786.447588067286	3
0	2931	4791.601894433282	4
0	2934	4792.564396442421	5
0	2937	4795.239135465533	4
0	2939	4799.151036820012	5
0	2942	4799.555699092553	6
0	2945	4800.872893368782	5
0	2947	4806.341479675254	6
0	2950	4808.077888463663	7
0	2953	4809.392068653676	8
0	2955	4811.543427854789	7
0	2958	4812.764250985734	6
0	2960	4813.782194858894	5
0	2962	4816.336736108881	4
0	2964	4824.572503175066	5
0	2967	4826.116206889074	4
0	2969	4828.167614901408	5
0	2972	4833.590782336882	6
0	2975	4838.168628864877	7
0	2978	4842.679378585142	6
0	2980	4842.75576290486	5
0	2982	4866.129901618577	4
0	2984	4869.641770654076	5
0	2987	4870.117436427316	6
0	2990	4870.537093218557	5
0	2992	4872.429052908908	4
0	2994	4873.066237883179	3
0	2996	4878.725252365789	4
0	2999	4886.24402252535	3
0	3001	4889.01633805619	4
0	3004	4891.560858190236	5
0	3007	4892.364983632112	4
0	3009	4894.726617363079	5
0	3012	4901.669041680866	4
0	3014	4903.021827266278	5
0	3017	4903.287028778307	4
0	3019	4908.204967506133	5
0	3022	4910.423079965336	6
0	3025	4919.221373725341	5
0	3027	4931.364813636883	4
0	3029	4933.114022076184	3
0	3031	4934.084070787892	4
0	3034	4942.322868880297	5
0	3037	4958.520576859574	6
0	3040	4959.466980355931	7
0	3043	4962.018669215036	8
0	3045	4965.512483634747	9
0	3047	4967.779268132003	8
0	3050	4968.025175219386	7
0	3053	4969.602712096448	8
0	3055	4975.658684813391	9
0	3057	4976.626212737189	8
0	3060	4977.083793989648	7
0	3063	4977.320436827229	6
0	3065	4980.771229966627	5
0	3067	4982.433440324645	6
0	3070	4982.44429465545	7
0	3073	4982.685092969677	6
0	3075	4983.462253163761	7
0	3078	4986.891424168885	6
0	3080	4989.664892588371	7
0	3083	4990.720180991983	6
0	3085	4992.952577078909	5
0	3087	4994.674975474042	4
0	3089	5002.389208757554	5
0	3092	5005.937446968608	6
0	3095	5009.067009717766	7
0	3098	5012.234533549941	6
0	3100	5014.631468499936	5
0	3102	5014.90231469343	6
0	3105	5015.88534053169	7
0	3108	5017.808808435305	8
0	3110	5018.610894199438	7
0	3113	5020.01693154415	6
0	3115	5020.1747471253	5
0	3117	5021.707906520799	4
0	3119	5027.634928143614	5
0	3122	5046.794503852422	6
0	3125	5052.581841405293	7
0	3128	5058.360478212885	6
0	3130	5058.486573095865	5
0	3132	5064.869754245057	4
0	3134	5067.456785927449	5
0	3137	5067.676581052295	6
0	3140	5069.922754679971	7
0	3143	5070.711274264241	6
0	3145	5075.325483328001	5
0	3147	5076.54137101103	6
0	3150	5083.604144349038	5
0	3152	5095.872446204237	6
0	3155	5098.724399423808	5
0	3157	5098.894042483598	4
0	3159	5106.226567332662	3
0	3161	5107.430916427472	4
0	3164	5107.747195821909	3
0	3166	5118.652661854986	2
0	3168	5121.116573198352	3
0	3171	5121.368850793879	4
0	3174	5125.068148317633	5
0	3177	5125.182190757764	4
0	3179	5129.48575989023	3
0	3181	5133.64206419636	4
0	3184	5137.889152621891	5
0	3187	5140.192123017095	6
0	3190	5150.742764033502	5
0	3192	5150.876156016607	4
0	3194	5150.93206119509	3
0	3196	5151.48471617328	2
0	3198	5151.928083663865	1
0	3200	5177.384262533618	2
0	3203	5181.955612233279	3
0	3206	5183.139231562264	4
0	3209	5183.738463336421	5
0	3212	5185.105656951529	6
0	3215	5190.238472288043	5
0	3217	5191.183860168923	6
0	3220	5192.228830450055	7
0	3223	5195.245969622197	6
0	3225	5205.657870686881	5
0	3227	5210.475624802598	4
0	3229	5214.581475204832	5
0	3232	5215.428604344944	6
0	3235	5218.337230754318	7
0	3238	5221.058211570363	6
0	3240	5221.774694620037	5
0	3242	5229.278557060626	6
0	3245	5229.803722390316	7
0	3248	5233.498893055449	6
0	3250	5238.389073417993	7
0	3253	5243.526154059326	6
0	3255	5253.471992515426	7
0	3258	5258.773787617557	8
0	3260	5260.369382007508	7
0	3263	5266.257398819765	6
0	3265	5275.416488508019	5
0	3267	5282.363594929185	6
0	3270	5286.421555817212	7
0	3273	5289.222061283898	6
0	3275	5291.825125940641	7
0	3278	5296.346763921041	8
0	3280	5315.478923337108	9
0	3282	5317.391535342099	8
0	3285	5324.217419899279	7
0	3288	5326.587243007972	6
0	3290	5326.809935597526	5
0	3292	5331.693386840555	6
0	3295	5334.58129190402	5
0	3297	5340.674397555817	4
0	3299	5350.837003276809	5
0	3302	5361.736672551975	6
0	3305	5365.398521542198	5
0	3307	5372.346373983941	6
0	3310	5374.675835177606	5
0	3312	5378.077641530025	6
0	3315	5389.562087600798	5
0	3317	5392.316003905796	6
0	3320	5393.388373590208	5
0	3322	5403.265784507902	6
0	3325	5404.679722349732	7
0	3328	5406.474699829522	8
0	3330	5412.868542036347	7
0	3333	5418.876629482021	6
0	3335	5420.433779722593	5
0	3337	5421.417213853089	6
0	3340	5422.253337129642	5
0	3342	5440.445873595512	4
0	3344	5442.301641414737	3
0	3346	5461.101932512899	4
0	3349	5461.529846103553	3
0	3351	5463.27150578249	2
0	3353	5465.399868728516	3
0	3356	5469.419147986178	2
0	3358	5469.608480306208	3
0	3361	5472.311160415113	4
0	3364	5479.684975013358	3
0	3366	5481.218883604824	4
0	3369	5485.317305686708	3
0	3371	5485.872644880867	2
0	3373	5487.820659322014	3
0	3376	5490.5427730943	4
0	3379	5496.122558562458	3
0	3381	5506.129699602059	4
0	3384	5509.079007840595	3
0	3386	5516.084532264227	2
0	3388	5517.329247297868	3
0	3391	5521.870794993986	4
0	3394	5528.348966911901	5
0	3397	5528.996641291374	6
0	3400	5532.325204400683	7
0	3403	5535.034518288648	8
0	3405	5535.683081273339	9
0	3407	5538.301373494791	8
0	3410	5538.370342926321	9
0	3412	5538.844788244271	10
0	3414	5548.398326271932	11
0	3416	5548.511882823109	10
0	3419	5551.156459005081	11
0	3421	5575.976932133984	12
0	3423	5578.221862802756	13
0	3425	5584.612545734879	14
0	3427	5587.603773073264	13
0	3430	5588.987434800456	12
0	3433	5595.572409606803	11
0	3436	5597.326209362687	12
0	3438	5597.741935233099	11
0	3441	5599.666292651936	12
0	3443	5599.672542247759	13
0	3445	5603.814934318677	12
0	3448	5604.238668869072	11
0	3451	5609.388226532586	12
0	3453	5614.237805583706	11
0	3456	5616.466226610304	10
0	3459	5624.343017893585	9
0	3462	5627.291900467774	8
0	3465	5634.171447789642	7
0	3468	5645.803077944706	8
0	3470	5646.951985131207	7
0	3473	5647.080062417513	6
0	3475	5647.081865071496	7
0	3478	5651.062709812115	6
0	3480	5653.907873610766	5
0	3482	5655.601148971049	4
0	3484	5663.462310932996	5
0	3487	5663.971190792464	6
0	3490	5690.912357800324	7
0	3493	5699.288286544412	8
0	3495	5703.498607055486	7
0	3498	5704.516912029706	6
0	3500	5705.167738270225	7
0	3503	5708.937402768323	8
0	3505	5709.974004731819	7
0	3508	5712.552262213573	6
0	3510	5715.295773345	5
0	3512	5720.057683376545	6
0	3515	5724.852136878784	7
0	3518	5725.954375497915	8
0	3520	5726.569272183424	9
0	3522	5737.766391904229	8
0	3525	5738.427663779813	7
0	3528	5740.100938754151	6
0	3530	5746.595463512558	7
0	3533	5751.822073951626	8
0	3535	5753.942549002947	7
0	3538	5754.579409791245	8
0	3540	5754.742565317874	7
0	3543	5758.498691534766	6
0	3545	5762.033573592832	7
0	3548	5763.00489246388	8
0	3550	5764.762984847048	7
0	3553	5772.808740681629	6
0	3555	5778.756149381758	5
0	3557	5780.084006472183	4
0	3559	5780.615194439327	3
0	3561	5783.474676828364	2
0	3563	5794.477643579565	1
0	3565	5795.374755606658	2
0	3568	5803.757315485642	3
0	3571	5803.930945211248	4
0	3574	5815.12000392778	5
0	3577	5820.937719622547	6
0	3580	5828.258695335368	7
0	3583	5830.607946278527	6
0	3585	5832.960486571938	5
0	3587	5833.594899870769	6
0	3590	5833.948860023427	7
0	3593	5841.798506680783	8
0	3595	5856.331878731579	7
0	3598	5856.590658175921	8
0	3600	5861.520129226215	7
0	3603	5866.741300975431	6
0	3605	5870.599677679921	5
0	3607	5871.938683707931	6
0	3610	5884.182732230267	7
0	3613	5888.094485980668	6
0	3615	5889.696497969901	7
0	3618	5892.434493549249	6
0	3620	5895.742362571189	7
0	3623	5902.54228952623	8
0	3625	5906.461218150943	9
0	3627	5912.047372682106	10
0	3629	5912.533527088603	9
0	3632	5912.570163253719	8
0	3635	5915.342367532705	7
0	3638	5916.866160381043	6
0	3640	5918.854513134062	7
0	3643	5921.389745684578	6
0	3645	5921.671064285046	5
0	3647	5923.329436591452	4
0	3649	5931.588949016043	5
0	3652	5934.223537758231	6
0	3655	5937.85777860434	5
0	3657	5953.219204695427	6
0	3660	5954.227114739827	5
0	3662	5958.014919880543	6
0	3665	5960.699960462843	5
0	3667	5961.13158720564	6
0	3670	5962.618541117918	7
0	3673	5963.562850673484	6
0	3675	5967.560653569532	5
0	3677	5972.928892094165	6
0	3680	5975.862061905151	7
0	3683	5976.82745895223	6
0	3685	5981.866930005436	5
0	3687	5983.454141556139	4
0	3689	5984.37009157867	5
0	3692	5991.787673717603	4
0	3694	5996.874509672872	5
0	3697	6000.612652871638	6
0	3700	6010.832864925767	7
0	3703	6013.383972091175	6
0	3705	6013.535372923079	5
0	3707	6023.849444911383	6
0	3710	6024.806684098574	5
0	3712	6028.410791266292	4
0	3714	6029.253594005359	5
0	3717	6031.469410702186	4
0	3719	6032.970586433314	3
0	3721	6038.754550095963	4
0	3724	6040.756648562946	3
0	3726	6042.762724886254	4
0	3729	6047.263999350308	3
0	3731	6048.178919959805	4
0	3734	6057.925255437148	5
0	3737	6058.068423604013	4
0	3739	6064.712863701116	5
0	3742	6071.682715627795	4
0	3744	6082.201088572148	3
0	3746	6085.236245465762	4
0	3749	6108.930527114382	3
0	3751	6109.034187106584	4
0	3754	6113.935532732867	3
0	3756	6114.074339736227	4
0	3759	6122.251330452544	5
0	3762	6126.505911729154	6
0	3765	6134.566389215404	7
0	3768	6135.970855049824	6
0	3770	6137.115836950612	7
0	3773	6140.948384245652	8
0	3775	6143.71990141253	7
0	3778	6145.60780971857	8
0	3780	6148.306112556521	7
0	3783	6157.790387200529	8
0	3785	6167.193137253245	7
0	3788	6172.495660222323	6
0	3790	6183.856089094213	5
0	3792	6186.268729367919	4
0	3794	6187.54077501268	5
0	3797	6192.848346396844	4
0	3799	6196.139204501703	3
0	3801	6197.428971573891	2
0	3803	6204.010610131775	3
0	3806	6204.34780539321	2
0	3808	6206.907334165894	3
0	3811	6209.869944061734	4
0	3814	6217.993091441756	3
0	3816	6224.013629444981	2
0	3818	6226.901501998139	3
0	3821	6230.062592366059	4
0	3824	6233.084422831203	5
0	3827	6242.031591885955	6
0	3830	6242.352530257828	7
0	3833	6245.079560873777	8
0	3835	6248.621832301422	7
0	3838	6253.911074453076	8
0	3840	6254.593045756722	9
0	3842	6261.99290222013	8
0	3845	6262.396862162266	7
0	3848	6263.46737014981	6
0	3850	6269.921486597415	7
0	3853	6271.908730624275	6
0	3855	6272.640018723142	7
0	3858	6272.942354508708	6
0	3860	6286.90803495968	7
0	3863	6296.46228915898	8
0	3865	6298.417421773252	9
0	3867	6299.140883835712	8
0	3870	6303.779067611855	7
0	3873	6304.005361053197	8
0	3875	6307.666510354361	7
0	3878	6309.503601112411	8
0	3880	6316.444815193439	9
0	3882	6319.574011882643	10
0	3884	6322.944204521685	9
0	3887	6324.712679929237	8
0	3890	6327.44709035504	9
0	3892	6327.90030506751	10
0	3894	6328.4871376881	9
0	3897	6330.239861481423	8
0	3900	6333.348286834259	7
0	3903	6333.650895888183	6
0	3905	6334.027842141889	7
0	3908	6340.686782934706	6
0	3910	6341.056542235508	5
0	3912	6343.19194405104	6
0	3915	6347.787988884979	5
0	3917	6359.127103852671	4
0	3919	6360.889020601076	3
0	3921	6369.208055073975	4
0	3924	6375.742795932671	5
0	3927	6375.796063438424	4
0	3929	6378.09685561778	3
0	3931	6378.46974833411	2
0	3933	6389.056627234223	3
0	3936	6392.160730725876	2
0	3938	6399.186659594604	1
0	3940	6400.780592326897	0
0	3942	6407.230439268462	1
0	3945	6433.688198663165	2
0	3948	6434.855402037678	1
0	3950	6447.889788238112	0
0	3952	6448.735312108771	1
0	3955	6458.191554372344	2
0	3958	6460.658932709311	3
0	3961	6466.056778139879	2
0	3963	6473.603295096686	3
0	3966	6481.085182757023	4
0	3969	6492.219931002728	5
0	3972	6493.98362134635	4
0	3974	6506.626944542485	5
0	3977	6515.931592800484	4
0	3979	6523.787137146789	3
0	3981	6525.887673404714	2
0	3983	6529.281920463137	3
0	3986	6530.557688841311	4
0	3989	6533.887300629691	5
0	3992	6546.260807520475	6
0	3995	6549.398295903152	7
0	3998	6555.184241146635	8
0	4000	6555.280184779223	9
0	4002	6556.187390529392	8
0	4005	6561.936831244646	9
0	4007	6562.498564479944	10
0	4009	6563.513461556251	11
0	4011	6565.843844381276	10
0	4014	6567.445056006504	9
0	4017	6568.543651856038	8
0	4020	6573.092764517608	7
0	4023	6577.988450713433	6
0	4025	6583.386845148871	5
0	4027	6589.606599416902	6
0	4030	6589.768723792706	7
0	4033	6594.9224687164	8
0	4035	6595.255402129761	7
0	4038	6602.581912353773	8
0	4040	6603.619480838898	9
0	4042	6604.444924836216	10
0	4044	6605.358199717031	11
0	4046	6608.099186062655	10
0	4049	6610.505569816074	9
0	4052	6613.985342393921	10
0	4054	6617.732252253834	9
0	4057	6619.817197480303	10
0	4059	6626.639629723656	11
0	4061	6628.018438342027	10
0	4064	6628.85406098846	9
0	4067	6631.70017951569	8
0	4070	6635.072597977529	9
0	4072	6636.679748584996	8
0	4075	6637.233875432654	9
0	4077	6638.587135828263	8
0	4080	6648.541259880435	7
0	4083	6650.442146412036	6
0	4085	6650.90938045609	5
0	4087	6651.605672360712	6
0	4090	6658.40084724334	7
0	4093	6664.989295894715	6
0	4095	6665.179542729726	7
0	4098	6665.271620799892	6
0	4100	6673.204368856516	5
0	4102	6677.12632168742	4
0	4104	6684.925049564124	5
0	4107	6688.175604040953	6
0	4110	6688.689972764984	7
0	4113	6693.488090306821	6
0	4115	6696.57746344036	5
0	4117	6698.343310410315	6
0	4120	6700.284574511597	7
0	4123	6701.947587173346	8
0	4125	6704.056182242115	9
0	4127	6706.726752083395	8
0	4130	6707.293404993214	9
0	4132	6718.194023722734	8
0	4135	6724.926613478923	9
0	4137	6725.957750957545	10
0	4139	6726.432454876665	11
0	4141	6729.295304347449	10
0	4144	6735.565173589097	11
0	4146	6737.946189738827	10
0	4149	6738.730865145937	9
0	4152	6744.090487863093	10
0	4154	6745.38833809886	9
0	4157	6745.729634066238	8
0	4160	6746.160114155152	7
0	4163	6750.296662243406	8
0	4165	6757.194034865541	7
0	4168	6763.476720573955	6
0	4170	6763.750747625605	5
0	4172	6764.969273565721	6
0	4175	6769.600313445746	7
0	4178	6775.263526743425	6
0	4180	6778.053740323305	7
0	4183	6780.147424398058	8
0	4185	6780.610239355092	7
0	4188	6787.097298539689	6
0	4190	6791.958780001477	5
0	4192	6793.338592483862	6
0	4195	6799.460953959205	5
0	4197	6808.186000483217	6
0	4200	6810.900731782077	7
0	4203	6814.070267255259	6
0	4205	6814.10942624282	5
0	4207	6814.397610380717	4
0	4209	6814.940338057875	5
0	4212	6815.439149764755	4
0	4214	6830.596366433676	5
0	4217	6847.623368884981	4
0	4219	6850.067008150876	5
0	4222	6850.92560115829	6
0	4225	6853.462965160008	7
0	4228	6859.37436628961	6
0	4230	6866.590869636684	5
0	4232	6886.148745908903	4
0	4234	6888.351321070947	3
0	4236	6895.074901999962	4
0	4239	6898.155079887097	3
0	4241	6903.187279653052	4
0	4244	6911.184703306767	3
0	4246	6916.480656122451	4
0	4249	6922.492552384372	3
0	4251	6927.180131266018	4
0	4254	6927.306398463403	5
0	4257	6928.790036359663	6
0	4260	6931.164738392461	7
0	4263	6932.772615524266	8
0	4265	6935.354779648497	7
0	4268	6936.310614063167	6
0	4270	6940.094799533353	5
0	4272	6941.85250294267	4
0	4274	6945.181724764811	3
0	4276	6948.57749702807	4
0	4279	6953.901480613686	3
0	4281	6960.151169330294	4
0	4284	6961.177098053072	3
0	4286	6962.117894750982	4
0	4289	6962.867244738602	5
0	4292	6963.00493396558	4
0	4294	6964.506396281541	5
0	4297	6967.321833143165	4
0	4299	6969.712471727951	5
0	4302	6970.090664165112	6
0	4305	6970.782307209435	7
0	4308	6971.597243962624	8
0	4310	6974.425722524881	7
0	4313	6977.35440639778	6
0	4315	6987.484368052746	5
0	4317	6988.745748721511	4
0	4319	6995.058566472119	3
0	4321	6998.1356479525	4
0	4324	7000.871084029281	3
0	4326	7003.430200603198	4
0	4329	7011.491941953308	3
0	4331	7014.742290872918	2
0	4333	7017.854345404001	3
0	4336	7018.222116391793	4
0	4339	7020.337740686808	5
0	4342	7030.427298247636	4
0	4344	7038.294211143487	5
0	4347	7041.700328006628	4
0	4349	7043.75594766749	3
0	4351	7046.533059797077	2
0	4353	7053.127645975397	3
0	4356	7057.152952255218	4
0	4359	7059.364765736694	3
0	4361	7068.164397720847	4
0	4364	7070.43713298902	5
0	4367	7071.35545295107	6
0	4370	7073.571562417736	5
0	4372	7075.21193942494	4
0	4374	7085.177303978591	5
0	4377	7087.66111433375	6
0	4380	7090.76768513129	5
0	4382	7092.417328680643	4
0	4384	7101.098729175823	3
0	4386	7104.308010133978	4
0	4389	7112.522323685119	5
0	4392	7115.330064396118	4
0	4394	7116.06891983288	3
0	4396	7120.290741300557	2
0	4398	7121.336886530054	3
0	4401	7131.161552229404	4
0	4404	7138.785652975231	3
0	4406	7143.448447918511	2
0	4408	7147.074284796797	3
0	4411	7147.603371727282	2
0	4413	7150.442411251773	3
0	4416	7150.714397717366	4
0	4419	7151.819155198632	5
0	4422	7152.705905747438	6
0	4425	7153.786879046601	5
0	4427	7158.169416939512	6
0	4430	7160.247086593121	7
0	4433	7169.747940638787	6
0	4435	7169.753365891131	5
0	4437	7171.798204849218	6
0	4440	7173.783716274195	5
0	4442	7183.566758689776	6
0	4445	7184.155791837969	5
0	4447	7188.031826293692	4
0	4449	7189.45720617645	5
0	4452	7190.486340165858	6
0	4455	7192.215672828782	7
0	4458	7195.627639461098	8
0	4460	7197.640256923073	7
0	4463	7198.530810989435	8
0	4465	7204.586371886007	7
0	4468	7208.558947469468	8
0	4470	7210.723181136122	7
0	4473	7219.046440142735	6
0	4475	7219.888899172319	7
0	4478	7221.459978239899	6
0	4480	7226.223220916608	5
0	4482	7228.449332227764	6
0	4485	7229.017260346582	5
0	4487	7233.38920542358	6
0	4490	7237.940967397122	5
0	4492	7245.339977166181	6
0	4495	7254.592815537651	5
0	4497	7256.933625413542	6
0	4500	7257.338433942281	7
0	4503	7258.712314498839	6
0	4505	7258.887242831748	7
0	4508	7263.535957795422	6
0	4510	7269.725920004435	5
0	4512	7292.090469025134	6
0	4515	7297.428378094243	5
0	4517	7301.33012327859	6
0	4520	7317.784527374009	5
0	4522	7320.762658029692	4
0	4524	7321.596866747624	5
0	4527	7331.362702586568	4
0	4529	7334.455649386514	5
0	4532	7336.771569341757	6
0	4535	7350.44081741961	5
0	4537	7354.247308589281	6
0	4540	7354.767230454346	7
0	4543	7357.60153276877	8
0	4545	7359.327650712358	7
0	4548	7360.938885501979	6
0	4550	7361.653186052843	5
0	4552	7364.723522600826	6
0	4555	7367.156139590066	5
0	4557	7368.553864965413	4
0	4559	7382.013699156156	3
0	4561	7384.181004885844	4
0	4564	7384.457962215551	3
0	4566	7389.863845396444	2
0	4568	7392.377101958244	3
0	4571	7392.69102575353	2
0	4573	7399.426100400981	3
0	4576	7404.126795714328	2
0	4578	7409.501290198599	3
0	4581	7411.614455795149	2
0	4583	7412.288303806104	3
0	4586	7413.019350341409	4
0	4589	7413.27091988589	5
0	4592	7425.087611340054	6
0	4595	7426.555145421021	5
0	4597	7433.828755642054	6
0	4600	7433.895980942084	5
0	4602	7441.300990546872	4
0	4604	7445.72854215441	5
0	4607	7451.87780010921	4
0	4609	7455.045634730278	3
0	4611	7455.211887559454	2
0	4613	7456.0528828247	1
0	4615	7469.599208260902	2
0	4618	7477.300167533962	1
0	4620	7496.011870386641	2
0	4623	7502.84779334278	3
0	4626	7504.410979672433	2
0	4628	7506.682018469209	3
0	4631	7509.538633175003	4
0	4634	7511.010451712302	3
0	4636	7511.75478355743	4
0	4639	7511.860591559373	3
0	4641	7514.955764397683	4
0	4644	7515.462521097315	5
0	4647	7520.793916186123	4
0	4649	7520.859824268177	5
0	4652	7522.811114880901	6
0	4655	7526.68687203174	5
0	4657	7542.910933368202	4
0	4659	7555.87532104819	5
0	4662	7558.10293131336	4
0	4664	7566.09288297285	3
0	4666	7568.734297752868	4
0	4669	7573.23892307746	5
0	4672	7579.960491516776	4
0	4674	7580.704149663785	5
0	4677	7584.527672799316	4
0	4679	7584.621959679332	5
0	4682	7585.425570422284	4
0	4684	7596.030406699265	3
0	4686	7613.515582910879	4
0	4689	7615.117140437612	3
0	4691	7618.973803971109	4
0	4694	7623.303668757419	5
0	4697	7625.308976045412	6
0	4700	7631.230897340351	5
0	4702	7644.577935414401	6
0	4705	7647.326260319016	7
0	4708	7648.280810641692	6
0	4710	7650.091793345581	5
0	4712	7650.180366659033	6
0	4715	7652.850958346215	5
0	4717	7661.15261341258	4
0	4719	7662.651584753066	3
0	4721	7663.469680889993	4
0	4724	7667.350689026198	5
0	4727	7674.760357894646	4
0	4729	7675.25789139572	3
0	4731	7678.867758164643	2
0	4733	7684.979322358603	1
0	4735	7685.22081942304	2
0	4738	7692.550201113636	1
0	4740	7692.994884073829	2
0	4743	7693.156079847813	1
0	4745	7696.694014350629	2
0	4748	7701.373599243961	3
0	4751	7706.637350855026	4
0	4754	7716.389943770029	5
0	4757	7724.202416349705	4
0	4759	7735.09628062717	5
0	4762	7735.668548663503	6
0	4765	7736.497088415867	5
0	4767	7745.666377336652	6
0	4770	7746.029201310464	5
0	4772	7760.765803687831	4
0	4774	7774.149435305889	5
0	4777	7776.386727456243	4
0	4779	7779.045796183829	5
0	4782	7780.764550101192	6
0	4785	7790.274700348853	5
0	4787	7791.811549100943	4
0	4789	7797.273611148705	3
0	4791	7804.014246388002	2
0	4793	7806.147894479455	3
0	4796	7808.158703091155	4
0	4799	7825.493206031021	5
0	4802	7834.752781546976	6
0	4805	7839.719939199026	7
0	4808	7841.214896961571	6
0	4810	7841.335286351755	5
0	4812	7844.468402645506	4
0	4814	7844.685476455458	3
0	4816	7846.80871041224	4
0	4819	7848.52831778636	5
0	4822	7849.131326433867	4
0	4824	7851.175459171057	3
0	4826	7851.247116735722	4
0	4829	7852.088830151434	3
0	4831	7855.103033695564	2
0	4833	7865.713003419403	3
0	4836	7869.460617869337	4
0	4839	7869.672685128508	3
0	4841	7870.149772318736	2
0	4843	7873.313449788856	1
0	4845	7880.394376450074	0
0	4847	7887.693409378223	1
0	4850	7893.396416700097	2
0	4853	7896.652017152006	1
0	4855	7902.31328700858	2
0	4858	7906.288969094619	1
0	4860	7906.293641724897	2
0	4863	7919.387642632179	3
0	4866	7920.356669814202	4
0	4869	7920.510286325714	5
0	4872	7939.36646477254	4
0	4874	7941.77514715147	5
0	4877	7943.399318248193	4
0	4879	7947.734901054585	3
0	4881	7949.447103081489	2
0	4883	7949.528956253519	3
0	4886	7954.541542855527	4
0	4889	7967.702914668115	5
0	4892	7972.023150428371	4
0	4894	7975.196599410554	5
0	4897	7977.126859368614	4
0	4899	7977.889973290649	5
0	4902	7996.400424427885	4
0	4904	8002.370927778865	5
0	4907	8003.721796230025	6
0	4910	8004.000588226719	5
0	4912	8005.210650934616	4
0	4914	8008.287938765481	3
0	4916	8017.548358801886	2
0	4918	8022.008472689372	1
0	4920	8025.182154240588	2
0	4923	8042.873720058928	3
0	4926	8054.345583662531	2
0	4928	8075.405055535871	3
0	4931	8087.603618495578	4
0	4934	8093.677890482836	3
0	4936	8101.470576262794	4
0	4939	8105.018629632794	5
0	4942	8108.084178736118	6
0	4945	8113.214904381615	5
0	4947	8114.979935279513	6
0	4950	8118.10960873905	7
0	4953	8120.178919677976	8
0	4955	8123.03863313172	9
0	4957	8126.258161402785	10
0	4959	8140.352004885217	9
0	4962	8141.192775577535	10
0	4964	8141.769481631594	9
0	4967	8143.582226874628	8
0	4970	8150.4749567728	9
0	4972	8151.116601042673	8
0	4975	8159.400345030125	7
0	4978	8163.998336526429	6
0	4980	8172.23192577526	5
0	4982	8188.611996314929	4
0	4984	8193.994631301541	3
0	4986	8203.69009924696	2
0	4988	8204.658089546355	3
0	4991	8216.114636813984	4
0	4994	8228.288794274906	5
0	4997	8239.734267374431	4
0	4999	8245.225505219159	5
0	5002	8265.718989578164	4
0	5004	8269.67802965714	3
0	5006	8273.562026322642	4
0	5009	8274.542242300786	3
0	5011	8282.166641112591	4
0	5014	8287.281279314391	5
0	5017	8290.914369908397	4
0	5019	8293.759965785904	3
0	5021	8300.133868002271	4
0	5024	8300.461963289973	5
0	5027	8302.14335619891	6
0	5030	8302.407954493332	5
0	5032	8308.122969216455	6
0	5035	8316.217564120138	5
0	5037	8318.28097868263	6
0	5040	8318.740391769788	7
0	5043	8320.100086412858	6
0	5045	8322.736611331024	5
0	5047	8338.248654822651	4
0	5049	8339.720706558167	3
0	5051	8350.388038423766	4
0	5054	8352.875050890131	5
0	5057	8366.298048636332	4
0	5059	8367.038421253676	3
0	5061	8372.030747277252	4
0	5064	8374.303390098859	5
0	5067	8375.764560881908	4
0	5069	8380.459036306625	3
0	5071	8386.573859842449	4
0	5074	8391.495853498326	5
0	5077	8409.375192545209	6
0	5080	8417.773489603246	5
0	5082	8422.35130532919	4
0	5084	8424.844484288684	3
0	5086	8430.228119421536	4
0	5089	8435.085092281451	5
0	5092	8442.2184187374	4
0	5094	8444.634582550148	3
0	5096	8447.681951458045	2
0	5098	8448.556734928196	3
0	5101	8448.641017838737	2
0	5103	8451.615362071735	3
0	5106	8452.037334146184	2
0	5108	8452.334909712052	3
0	5111	8460.482925497663	4
0	5114	8475.164193187709	5
0	5117	8475.538076511176	4
0	5119	8476.701892238498	3
0	5121	8482.209407030127	4
0	5124	8496.972708899643	5
0	5127	8497.302269486742	6
0	5130	8497.529901690584	5
0	5132	8498.205537201118	4
0	5134	8506.553986516422	3
0	5136	8516.235628143422	2
0	5138	8516.265912471795	3
0	5141	8518.782565948938	4
0	5144	8522.625001781936	5
0	5147	8529.650233545164	6
0	5150	8531.435366380392	5
0	5152	8536.660284127521	4
0	5154	8560.208649161414	3
0	5156	8566.227088330717	2
0	5158	8573.41067293965	3
0	5161	8573.947481867268	4
0	5164	8583.390374454715	5
0	5167	8583.908831707578	6
0	5170	8595.747181205523	7
0	5173	8599.524837575722	8
0	5175	8599.630855136337	7
0	5178	8605.085097835167	6
0	5180	8611.434625933189	7
0	5183	8612.467971038917	8
0	5185	8613.005629664895	9
0	5187	8617.290918162375	10
0	5189	8617.978016001399	9
0	5192	8627.68114843046	8
0	5195	8628.725281118628	9
0	5197	8631.591765956972	8
0	5200	8631.687629409824	7
0	5203	8632.905436171778	6
0	5205	8637.713786180821	7
0	5208	8641.202381339919	6
0	5210	8641.905519872075	5
0	5212	8650.212444885582	6
0	5215	8651.504071652003	5
0	5217	8655.325265177345	6
0	5220	8662.173307795087	7
0	5223	8662.323271819281	8
0	5225	8664.502552599269	7
0	5228	8664.912807700157	8
0	5230	8682.158051806131	7
0	5233	8686.018875800303	8
0	5235	8690.257594511439	9
0	5237	8691.859354352964	8
0	5240	8692.569043404113	9
0	5242	8693.218562439769	8
0	5245	8694.800189141259	9
0	5247	8694.859521392297	10
0	5249	8706.790081283666	11
0	5251	8711.465279608104	12
0	5253	8711.502813391502	11
0	5256	8711.844227519532	10
0	5259	8715.092234222298	9
0	5262	8716.228800437126	10
0	5264	8716.733864945909	9
0	5267	8718.470874099415	8
0	5270	8718.709413723148	7
0	5273	8722.244961539925	6
0	5275	8722.982493196851	5
0	5277	8727.687883566349	4
0	5279	8731.43806344343	5
0	5282	8737.10515105983	4
0	5284	8741.888967752753	5
0	5287	8743.438831925266	4
0	5289	8757.532054562906	3
0	5291	8759.403059854325	2
0	5293	8763.589929028866	3
0	5296	8767.922904699632	2
0	5298	8777.581955828229	3
0	5301	8778.725422079192	4
0	5304	8782.625900483657	3
0	5306	8784.179388540249	4
0	5309	8784.75219267632	5
0	5312	8795.140857903711	6
0	5315	8795.784839002385	5
0	5317	8796.632316831477	4
0	5319	8804.2096081836	3
0	5321	8805.28097972591	2
0	5323	8809.54092772243	3
0	5326	8814.949134358045	4
0	5329	8822.805419231795	3
0	5331	8829.184347441008	2
0	5333	8829.189986997013	1
0	5335	8829.824580349133	2
0	5338	8839.111356847144	3
0	5341	8858.82112085475	4
0	5344	8870.020344659176	3
0	5346	8870.548680296415	4
0	5349	8871.640474475984	3
0	5351	8873.562888228494	2
0	5353	8883.052250003162	3
0	5356	8892.749126908154	4
0	5359	8899.578550943161	3
0	5361	8900.568453795931	2
0	5363	8907.230629618153	3
0	5366	8921.587710483447	4
0	5369	8930.013247065936	3
0	5371	8935.206617822081	4
0	5374	8943.377162048809	5
0	5377	8943.70215042857	6
0	5380	8946.6996079278	5
0	5382	8951.722171385652	6
0	5385	8953.091690279166	5
0	5387	8953.271773579172	6
0	5390	8953.383721249622	7
0	5393	8953.7402022883	8
0	5395	8955.866054005145	7
0	5398	8959.65509342122	6
0	5400	8969.915500644606	5
0	5402	8976.007122096801	4
0	5404	8989.248247058176	5
0	5407	8989.255503749385	6
0	5410	8991.205757987341	7
0	5413	8993.99540584158	6
0	5415	8996.962351494703	5
0	5417	9021.24488922107	6
0	5420	9025.132272910378	5
0	5422	9025.166521094952	6
0	5425	9040.145944720402	5
0	5427	9041.647579961835	4
0	5429	9044.798060654121	3
0	5431	9058.766439948051	2
0	5433	9084.049448167088	3
0	5436	9098.950124548978	4
0	5439	9102.157367177678	3
0	5441	9105.437111362917	4
0	5444	9108.133996724109	5
0	5447	9109.415211342586	6
0	5450	9112.712119903075	7
0	5453	9113.883193602669	8
0	5455	9114.000371474717	7
0	5458	9121.616508104442	8
0	5460	9127.055686314461	7
0	5463	9141.015082959616	8
0	5465	9145.889111306018	9
0	5467	9161.220208904996	8
0	5470	9165.872204732726	9
0	5472	9166.27747207338	8
0	5475	9167.625696713666	9
0	5477	9174.656930534883	10
0	5479	9185.623906523071	9
0	5482	9190.278713875402	10
0	5484	9192.481992353203	9
0	5487	9194.26581383163	8
0	5490	9200.528649889264	9
0	5492	9207.577733045011	10
0	5494	9207.707990448793	9
0	5497	9214.900287652165	10
0	5499	9216.002443632912	11
0	5501	9219.540699143519	10
0	5504	9225.987131743558	11
0	5506	9233.604409882109	12
0	5508	9233.861404002898	11
0	5511	9235.178524990397	10
0	5514	9245.442529910517	9
0	5517	9247.328372623687	8
0	5520	9251.927505749692	7
0	5523	9259.944920770608	6
0	5525	9260.570362723435	5
0	5527	9262.364809240672	4
0	5529	9264.255860471134	5
0	5532	9267.933124045536	6
0	5535	9268.000331243777	5
0	5537	9268.084086412978	4
0	5539	9272.497838776252	5
0	5542	9279.337422414158	4
0	5544	9279.485989434574	5
0	5547	9280.12879626486	6
0	5550	9282.913537941407	5
0	5552	9283.822794366832	4
0	5554	9285.752959746744	5
0	5557	9286.401854751878	6
0	5560	9290.004080123613	7
0	5563	9298.497777395912	8
0	5565	9299.755781788431	7
0	5568	9301.248866855996	6
0	5570	9301.83157393662	7
0	5573	9302.317094927996	8
0	5575	9304.334785969022	7
0	5578	9305.521472409169	8
0	5580	9305.655182117014	7
0	5583	9306.435884476663	8
0	5585	9308.950789522861	7
0	5588	9309.484726464564	6
0	5590	9309.514693329123	5
0	5592	9317.335334035902	4
0	5594	9317.36777099223	3
0	5596	9320.317423065324	2
0	5598	9324.341354298791	3
0	5601	9337.75941908152	2
0	5603	9341.510147113002	3
0	5606	9360.709167601338	2
0	5608	9365.166170833376	1
0	5610	9367.208623144093	2
0	5613	9389.454113155727	3
0	5616	9389.839786807042	4
0	5619	9390.803915685448	5
0	5622	9391.052306319733	6
0	5625	9393.049529639259	7
0	5628	9393.391248565041	6
0	5630	9393.754274595002	5
0	5632	9395.231821130439	6
0	5635	9406.038536434403	5
0	5637	9406.371239273	4
0	5639	9413.458243336477	3
0	5641	9426.846846274263	2
0	5643	9432.626111408558	3
0	5646	9433.232366287065	4
0	5649	9437.939899699528	3
0	5651	9438.940839379326	2
0	5653	9453.403293183556	3
0	5656	9456.591683182025	4
0	5659	9464.506735409374	5
0	5662	9466.373726394173	4
0	5664	9469.746381761929	5
0	5667	9471.542396028613	4
0	5669	9474.885468055126	5
0	5672	9478.853046876521	4
0	5674	9481.850536942028	5
0	5677	9492.390587260785	4
0	5679	9494.330100025623	5
0	5682	9496.431099683686	4
0	5684	9507.796687287558	5
0	5687	9513.148538645252	6
0	5690	9516.770040771893	5
0	5692	9516.823350293586	4
0	5694	9517.023663108996	3
0	5696	9519.797771475193	2
0	5698	9533.460779297057	1
0	5700	9547.837073838062	2
0	5703	9551.891789023457	1
0	5705	9577.565367469058	2
0	5708	9587.408483252036	3
0	5711	9589.726266266403	2
0	5713	9599.105672916455	3
0	5716	9599.626309183784	4
0	5719	9607.734254296824	5
0	5722	9615.04376186804	4
0	5724	9619.089041235075	5
0	5727	9620.040019582771	6
0	5730	9630.465808779311	7
0	5733	9631.055891845999	6
0	5735	9633.720744056519	5
0	5737	9640.660821571403	6
0	5740	9640.917323234788	5
0	5742	9640.948888331212	6
0	5745	9641.948567101316	7
0	5748	9642.119773678795	8
0	5750	9643.385285919225	9
0	5752	9650.07331915945	10
0	5754	9654.058915948649	9
0	5757	9655.45584148178	8
0	5760	9658.667706239088	7
0	5763	9665.94469003283	8
0	5765	9671.525018996527	9
0	5767	9674.308998439852	8
0	5770	9678.339774828728	9
0	5772	9679.4321960052	8
0	5775	9679.475193298823	7
0	5778	9688.166424983709	6
0	5780	9688.644188945096	7
0	5783	9692.138063982191	6
0	5785	9695.266374586847	7
0	5788	9697.972446161144	6
0	5790	9701.562737638883	5
0	5792	9702.7613969907	4
0	5794	9702.793051309008	3
0	5796	9705.677776523822	4
0	5799	9714.90712216663	3
0	5801	9715.267748575826	4
0	5804	9745.066007538698	5
0	5807	9753.258863506417	4
0	5809	9759.997253112565	5
0	5812	9764.729018067717	6
0	5815	9788.1940123736	7
0	5818	9791.319132090482	8
0	5820	9791.853571122468	9
0	5822	9792.096422125237	10
0	5824	9792.42464697392	11
0	5826	9793.23245385472	12
0	5828	9793.878310207631	13
0	5830	9798.607854030814	14
0	5832	9800.106067371604	13
0	5835	9803.199076520609	12
0	5838	9809.020437483277	11
0	5841	9812.299750902357	10
0	5844	9822.880055548558	9
0	5847	9826.963938789171	8
0	5850	9827.152507390461	7
0	5853	9829.140166589318	8
0	5855	9833.383014247216	7
0	5858	9837.8717905025	6
0	5860	9839.640177770398	7
0	5863	9841.797022045905	6
0	5865	9844.493488280303	5
0	5867	9845.750282013367	6
0	5870	9856.911795380745	7
0	5873	9860.679058648912	8
0	5875	9861.417919721886	7
0	5878	9862.10512984134	8
0	5880	9862.220740797456	7
0	5883	9869.622905753624	8
0	5885	9871.081264059549	9
0	5887	9872.115398655688	10
0	5889	9879.64665005364	11
0	5891	9881.595245320933	10
0	5894	9883.585163071781	11
0	5896	9886.779946620892	10
0	5899	9887.682048586591	9
0	5902	9893.870817682721	8
0	5905	9896.207462840247	7
0	5908	9896.501740889465	6
0	5910	9911.168832315376	5
0	5912	9911.419642606073	4
0	5914	9913.911898864659	5
0	5917	9915.286631538985	4
0	5919	9916.720519520347	5
0	5922	9918.736180105637	6
0	5925	9921.15149983711	5
0	5927	9927.723388774585	6
0	5930	9929.759259414971	5
0	5932	9935.702050028024	4
0	5934	9936.842593503139	3
0	5936	9941.246083152089	2
0	5938	9947.151732591566	3
0	5941	9948.265023226465	2
0	5943	9948.513984889194	3
0	5946	9948.695298321377	4
0	5949	9962.898464263205	3
0	5951	9966.521966224096	2
0	5953	9977.604440533742	3
0	5956	9986.924502686749	2
0	5958	9992.416144507998	3
0	5961	9992.752336487257	4
0	5964	10009.728580502331	3
0	5966	10014.425009353422	2
0	5968	10025.249898544194	3
0	5971	10025.524565979272	2
0	5973	10026.118787381672	3
0	5976	10027.704884569021	4
0	5979	10029.149974446296	5
0	5982	10029.420693223835	4
0	5984	10032.921930444199	3
0	5986	10034.408515642587	4
0	5989	10045.792364652701	3
0	5991	10071.106573776643	4
0	5994	10074.733340812775	3
0	5996	10083.484562855955	4
0	5999	10084.577711066099	3
0	6001	10085.875141011423	4
0	6004	10090.877641078614	3
0	6006	10092.683172919681	2
0	6008	10093.111445283606	3
0	6011	10094.305000244278	2
0	6013	10097.969917227567	1
0	6015	10102.402929822191	2
0	6018	10114.984093392366	3
0	6021	10118.923197873235	2
0	6023	10124.051773538903	3
0	6026	10135.833924703095	4
0	6029	10136.553508884131	3
0	6031	10139.639008272686	4
0	6034	10141.270411684489	3
0	6036	10141.604122768731	4
0	6039	10144.434847059435	5
0	6042	10147.503181714956	6
0	6045	10148.158349845189	5
0	6047	10150.10470866329	4
0	6049	10155.750452667504	3
0	6051	10158.444777051756	4
0	6054	10177.828068699699	5
0	6057	10178.512638279847	6
0	6060	10178.631962546796	5
0	6062	10180.532355922789	6
0	6065	10180.709846709018	7
0	6068	10183.633227214121	6
0	6070	10191.246673833157	5
0	6072	10193.4997470337	6
0	6075	10197.662215787867	7
0	6078	10198.589517073685	6
0	6080	10200.407569110045	7
0	6083	10203.530827041833	8
0	6085	10204.475441068367	9
0	6087	10205.062357398919	10
0	6089	10206.516091923973	9
0	6092	10210.440095099517	10
0	6094	10211.162148871112	11
0	6096	10211.561130567803	12
0	6098	10217.117773556006	13
0	6100	10223.998281723072	14
0	6102	10227.170184645362	13
0	6105	10231.329521871674	12
0	6108	10244.671044962915	11
0	6111	10245.51749820975	10
0	6114	10248.825065511364	11
0	6116	10248.966263786399	12
0	6118	10250.376640456722	11
0	6121	10258.588302326373	12
0	6123	10261.197740364761	13
0	6125	10262.276868342164	12
0	6128	10262.784666022658	13
0	6130	10276.177019206518	14
0	6132	10279.723636152981	15
0	6134	10280.252733735808	16
0	6136	10289.067193840326	15
0	6139	10289.395084703591	16
0	6141	10290.687027047598	15
0	6144	10291.672765435244	16
0	6146	10292.317511568631	17
0	6148	10296.501508467692	16
0	6151	10297.425889649705	17
0	6153	10299.177788374244	18
0	6155	10299.239711918312	17
0	6158	10299.826452617261	16
0	6161	10300.690135591061	15
0	6164	10304.747527700262	14
0	6167	10309.369714252122	15
0	6169	10309.946799406952	16
0	6171	10310.417946495196	17
0	6173	10312.317815690707	16
0	6176	10315.511285474918	17
0	6178	10315.627868655287	18
0	6180	10316.82249398377	17
0	6183	10321.933220785482	18
0	6185	10323.623647103175	17
0	6188	10324.186089064967	16
0	6191	10325.610272581427	17
0	6193	10328.702630691295	16
0	6196	10328.924859210301	15
0	6199	10329.188582673155	14
0	6202	10335.649582849417	13
0	6205	10335.868312680076	12
0	6208	10340.6362306278	11
0	6211	10341.512301123828	12
0	6213	10348.378086446958	11
0	6216	10351.68616770548	12
0	6218	10351.945455695648	13
0	6220	10355.762852449323	12
0	6223	10358.189950221016	13
0	6225	10359.37923835452	14
0	6227	10360.499519570571	15
0	6229	10363.097580470611	16
0	6231	10364.864069543661	15
0	6234	10365.398641118048	14
0	6237	10368.003152222647	13
0	6240	10376.153789295356	14
0	6242	10380.430451828778	15
0	6244	10385.038285523369	14
0	6247	10388.905363830408	15
0	6249	10391.807669650953	16
0	6251	10394.609818728185	15
0	6254	10396.218129478416	16
0	6256	10403.547435936045	15
0	6259	10404.050938683897	14
0	6262	10425.198725452083	13
0	6265	10432.269302998069	12
0	6268	10433.491925094197	13
0	6270	10434.755564301323	14
0	6272	10438.251727130334	15
0	6274	10439.044122149785	14
0	6277	10441.754189373925	13
0	6280	10449.722504252505	14
0	6282	10449.859510235455	13
0	6285	10455.713939631624	12
0	6288	10458.202877591721	11
0	6291	10461.059520636078	10
0	6294	10468.784427415762	11
0	6296	10469.160927658913	10
0	6299	10469.454413445462	9
0	6302	10474.713064076318	10
0	6304	10475.63990556855	9
0	6307	10481.366769960108	8
0	6310	10487.020350768878	7
0	6313	10487.258335123831	6
0	6315	10488.276224003959	5
0	6317	10499.631696577449	4
0	6319	10512.996028058125	3
0	6321	10514.9869773752	4
0	6324	10518.716955663589	5
0	6327	10521.478821424988	6
0	6330	10522.818199363942	7
0	6333	10524.161510764482	8
0	6335	10528.78010443267	7
0	6338	10530.926499989574	6
0	6340	10531.51920001593	5
0	6342	10537.690432211333	4
0	6344	10538.578279416784	3
0	6346	10540.774247963535	2
0	6348	10542.202819697668	3
0	6351	10557.535657651998	4
0	6354	10557.657873794822	3
0	6356	10563.9978601451	2
0	6358	10566.331280583303	3
0	6361	10566.448884514938	4
0	6364	10567.575472552275	3
0	6366	10570.691718673776	2
0	6368	10572.600134457108	3
0	6371	10573.672835745458	4
0	6374	10579.988668268211	3
0	6376	10582.027939525313	4
0	6379	10583.513981957474	3
0	6381	10583.77364463435	4
0	6384	10583.976731008333	5
0	6387	10584.163276453349	6
0	6390	10586.221661123555	7
0	6393	10586.621694856404	6
0	6395	10589.511062062232	5
0	6397	10592.797303557458	4
0	6399	10593.683919390923	3
0	6401	10594.2969755121	4
0	6404	10600.405524620556	5
0	6407	10600.538654657509	6
0	6410	10601.009330843829	5
0	6412	10608.15097960051	6
0	6415	10610.706358461103	7
0	6418	10611.842248893345	8
0	6420	10612.342929218787	7
0	6423	10613.791753020409	6
0	6425	10613.986010095151	5
0	6427	10614.555654692365	4
0	6429	10616.968327559032	3
0	6431	10618.353704011656	4
0	6434	10619.003660772536	3
0	6436	10626.741353462528	4
0	6439	10629.148928904256	3
0	6441	10631.70007518644	2
0	6443	10635.655689443595	3
0	6446	10636.898702409965	4
0	6449	10637.938784641202	5
0	6452	10639.82690529144	6
0	6455	10640.006243859299	5
0	6457	10640.520310704756	4
0	6459	10646.0221289993	5
0	6462	10646.276078636708	4
0	6464	10650.924960627825	5
0	6467	10655.072030377334	4
0	6469	10660.813567309655	5
0	6472	10662.478653283255	4
0	6474	10666.179251263324	3
0	6476	10670.452743563494	4
0	6479	10670.830615007356	5
0	6482	10680.6668965216	6
0	6485	10685.644011508158	7
0	6488	10689.735386653814	6
0	6490	10691.62308839565	7
0	6493	10695.32043167866	8
0	6495	10698.775028226049	7
0	6498	10700.354092459593	8
0	6500	10700.953498643217	9
0	6502	10708.09100296655	10
0	6504	10715.053289661798	11
0	6506	10723.072794265562	10
0	6509	10726.391368336508	11
0	6511	10727.034592132581	12
0	6513	10727.531187383319	13
0	6515	10733.064800762142	12
0	6518	10734.985950293783	11
0	6521	10736.53430856827	10
0	6524	10736.763956681152	11
0	6526	10743.324774050362	10
0	6529	10748.731538792328	9
0	6532	10752.567099523055	10
0	6534	10758.16313941257	11
0	6536	10760.262105269593	12
0	6538	10760.594886813028	11
0	6541	10773.164329648505	10
0	6544	10776.231315158392	11
0	6546	10784.221143931218	12
0	6548	10784.916136015304	11
0	6551	10789.424820852073	12
0	6553	10792.939073442398	11
0	6556	10798.353668730141	12
0	6558	10798.98335921442	11
0	6561	10802.53219246031	10
0	6564	10812.374525563582	9
0	6567	10813.143331377431	8
0	6570	10813.669150477946	9
0	6572	10814.737515931656	8
0	6575	10824.764705669545	9
0	6577	10825.70667794393	8
0	6580	10828.305869735715	9
0	6582	10832.822226124782	8
0	6585	10833.753040346879	7
0	6588	10843.771730920469	6
0	6590	10843.808686490526	5
0	6592	10848.683077366389	4
0	6594	10849.05997327016	3
0	6596	10850.151798137908	4
0	6599	10855.348044562853	5
0	6602	10855.510249320228	4
0	6604	10858.167449211361	5
0	6607	10865.539527484145	6
0	6610	10866.055676562083	7
0	6613	10866.88129341176	6
0	6615	10869.7159835482	5
0	6617	10875.456055507653	6
0	6620	10880.538968735742	5
0	6622	10881.776647520547	6
0	6625	10883.027593644059	5
0	6627	10884.692076846427	6
0	6630	10886.232855708271	7
0	6633	10886.633928070575	8
0	6635	10888.282937614723	7
0	6638	10888.675495237682	8
0	6640	10892.640170770041	7
0	6643	10895.944221596777	6
0	6645	10898.280763349161	7
0	6648	10899.473876603959	8
0	6650	10899.718062919581	7
0	6653	10902.690156369975	6
0	6655	10905.132239649276	5
0	6657	10910.861529759471	6
0	6660	10917.812592787417	5
0	6662	10920.905490413051	4
0	6664	10928.948214812562	3
0	6666	10932.366656071384	2
0	6668	10939.481154302431	3
0	6671	10946.735143670861	2
0	6673	10956.363783373682	3
0	6676	10957.490578691683	4
0	6679	10960.666932971555	3
0	6681	10964.974037348228	4
0	6684	10968.568302361621	3
0	6686	10974.517370338921	2
0	6688	10977.149313761834	3
0	6691	10989.939890808006	4
0	6694	10991.883300092755	3
0	6696	11004.483405728713	4
0	6699	11006.091962723862	5
0	6702	11012.25275685244	4
0	6704	11025.204870981691	3
0	6706	11029.26794551015	4
0	6709	11032.629942679035	5
0	6712	11033.030205792216	4
0	6714	11043.409854440667	3
0	6716	11051.549141975271	4
0	6719	11054.974753824604	3
0	6721	11055.025994492719	2
0	6723	11055.621815956953	3
0	6726	11063.256958220947	4
0	6729	11066.529116091383	5
0	6732	11066.667624403271	6
0	6735	11069.836911346633	7
0	6738	11071.271824270501	6
0	6740	11073.079853932837	7
0	6743	11073.480280734243	6
0	6745	11075.745718123202	5
0	6747	11080.695399656124	4
0	6749	11081.319631649416	5
0	6752	11085.10955196852	4
0	6754	11085.834693056128	3
0	6756	11093.118037264132	4
0	6759	11094.919507168396	3
0	6761	11100.540079158015	2
0	6763	11107.512468931757	3
0	6766	11109.103250077252	4
0	6769	11110.608189941008	3
0	6771	11115.0731135151	4
0	6774	11116.573508108986	3
0	6776	11116.635529238913	4
0	6779	11127.094550228241	5
0	6782	11136.454386169199	4
0	6784	11137.270767788681	5
0	6787	11144.444131427531	6
0	6790	11146.094383665327	5
0	6792	11150.86055398331	4
0	6794	11154.412547297433	3
0	6796	11154.417896005042	4
0	6799	11164.195299022792	5
0	6802	11165.036799964696	6
0	6805	11166.773417616582	5
0	6807	11172.359978557972	6
0	6810	11178.046562970013	5
0	6812	11179.827483299046	6
0	6815	11180.24601590439	5
0	6817	11181.015003857209	6
0	6820	11188.78181322678	7
0	6823	11201.541109320265	6
0	6825	11202.329882240717	5
0	6827	11204.555231729619	6
0	6830	11209.933529999683	7
0	6833	11211.406165943036	8
0	6835	11218.657407386867	7
0	6838	11224.534163501533	6
0	6840	11227.06918038598	7
0	6843	11229.645313908107	8
0	6845	11236.081422237994	9
0	6847	11238.958913415991	8
0	6850	11239.6782931772	7
0	6853	11240.53189867483	6
0	6855	11242.198784315226	7
0	6858	11242.775500491722	6
0	6860	11250.508588074926	7
0	6863	11251.047255607782	6
0	6865	11254.76600494886	5
0	6867	11259.570950392468	6
0	6870	11260.651633888031	5
0	6872	11264.024664670118	4
0	6874	11265.930069857124	3
0	6876	11267.337146268178	4
0	6879	11280.200372894316	3
0	6881	11288.441170832378	4
0	6884	11297.657112820983	5
0	6887	11298.046676740601	4
0	6889	11298.923260860162	5
0	6892	11302.531096225062	4
0	6894	11304.069568719145	3
0	6896	11304.271902485682	4
0	6899	11304.671348105523	5
0	6902	11305.75337090439	6
0	6905	11313.349926468426	7
0	6908	11321.786486607509	6
0	6910	11323.471790005563	7
0	6913	11324.114864402434	6
0	6915	11330.289494489876	7
0	6918	11334.674919335637	6
0	6920	11335.265977596018	5
0	6922	11336.033745708381	6
0	6925	11336.295524223618	5
0	6927	11346.489288517095	6
0	6930	11348.560055978109	5
0	6932	11349.532051874739	6
0	6935	11351.145888303777	7
0	6938	11352.380183641929	8
0	6940	11359.083455996231	7
0	6943	11364.617102908579	8
0	6945	11367.754235116321	7
0	6948	11376.61706314469	8
0	6950	11377.147605498701	9
0	6952	11382.531231998367	8
0	6955	11384.512479281701	9
0	6957	11385.61916346453	10
0	6959	11387.94207730907	9
0	6962	11390.410742524486	8
0	6965	11392.605804285708	9
0	6967	11394.172613411452	10
0	6969	11394.316690735688	11
0	6971	11395.052812276144	12
0	6973	11395.445218069675	11
0	6976	11397.131384700933	10
0	6979	11399.572623872796	11
0	6981	11399.925957001488	12
0	6983	11404.2354988765	11
0	6986	11414.758458610721	12
0	6988	11416.879220579793	11
0	6991	11419.571435121208	10
0	6994	11423.107947364318	11
0	6996	11424.287698669811	12
0	6998	11435.401525399244	11
0	7001	11436.098807331957	10
0	7004	11436.922211601323	9
0	7007	11437.314404899783	8
0	7010	11438.372493720091	7
0	7013	11439.113747063129	6
0	7015	11453.922503961935	5
0	7017	11454.520892228173	6
0	7020	11454.713163740632	7
0	7023	11458.71607871407	6
0	7025	11459.009358382266	5
0	7027	11459.069645005939	6
0	7030	11471.625830044218	7
0	7033	11471.765783954411	6
0	7035	11472.940942661816	7
0	7038	11474.272773161718	8
0	7040	11477.075956548801	9
0	7042	11479.93438640359	8
0	7045	11480.799709561897	7
0	7048	11481.735240956595	6
0	7050	11483.06483854396	5
0	7052	11497.59106130421	6
0	7055	11499.832990627104	7
0	7058	11501.47248155879	6
0	7060	11516.731625774056	5
0	7062	11520.614313623158	6
0	7065	11522.314718364014	5
0	7067	11530.672003129572	6
0	7070	11537.303372784299	7
0	7073	11537.52594149038	6
0	7075	11545.083709900691	7
0	7078	11550.794617788175	8
0	7080	11551.900377457101	7
0	7083	11558.354939735531	8
0	7085	11562.376430728166	7
0	7088	11564.46767991769	8
0	7090	11566.421463584662	7
0	7093	11579.226682599385	6
0	7095	11588.86643228913	5
0	7097	11590.423351664891	4
0	7099	11595.702141485516	3
0	7101	11597.881875608249	4
0	7104	11598.318383132246	5
0	7107	11600.901114364662	6
0	7110	11604.030411032542	5
0	7112	11605.855444528717	4
0	7114	11610.071313939648	5
0	7117	11613.867421213973	4
0	7119	11615.602903920912	3
0	7121	11617.942449979997	4
0	7124	11625.421555630786	5
0	7127	11625.561171885917	4
0	7129	11629.456100504853	5
0	7132	11630.383275912893	4
0	7134	11632.426229026337	5
0	7137	11643.118652539623	6
0	7140	11644.489534335379	5
0	7142	11650.356858880171	4
0	7144	11655.604936978606	5
0	7147	11659.192781109859	6
0	7150	11665.610931776746	7
0	7153	11670.680797075445	6
0	7155	11673.035951056615	5
0	7157	11676.018278336634	4
0	7159	11678.495475827434	3
0	7161	11679.729049596221	4
0	7164	11689.714415185669	3
0	7166	11690.026241568187	4
0	7169	11692.617216124405	5
0	7172	11700.05180245103	4
0	7174	11706.354064723482	5
0	7177	11715.782571859803	6
0	7180	11715.97327187747	5
0	7182	11716.547899339666	6
0	7185	11718.435098431127	7
0	7188	11718.78523306768	6
0	7190	11726.768520762788	5
0	7192	11729.498233760647	4
0	7194	11731.45960703203	5
0	7197	11734.204543933632	4
0	7199	11738.116986995625	3
0	7201	11742.906398474496	4
0	7204	11745.128195795778	3
0	7206	11746.913788326151	4
0	7209	11747.057121821691	3
0	7211	11752.761825539422	4
0	7214	11754.119305295291	5
0	7217	11755.532421260949	4
0	7219	11756.281753458751	5
0	7222	11757.273141043397	4
0	7224	11772.728948078223	5
0	7227	11777.213187910038	4
0	7229	11783.582608881028	5
0	7232	11783.800372838636	6
0	7235	11784.791670601077	7
0	7238	11791.11488833763	6
0	7240	11797.654335104233	5
0	7242	11803.859789366692	6
0	7245	11813.846863039334	7
0	7248	11817.5008002509	6
0	7250	11819.705308515869	7
0	7253	11819.863624883421	6
0	7255	11821.054618886798	5
0	7257	11822.71402745802	4
0	7259	11831.299284784639	5
0	7262	11837.713166203512	6
0	7265	11842.151397954545	5
0	7267	11843.878838972014	6
0	7270	11844.878404553118	7
0	7273	11850.973424075744	8
0	7275	11862.009975709265	7
0	7278	11862.582308382737	8
0	7280	11868.696942586951	7
0	7283	11871.17659295937	6
0	7285	11873.973041984219	7
0	7288	11874.679541188823	8
0	7290	11880.458376762804	7
0	7293	11881.360788800803	8
0	7295	11888.786872744729	7
0	7298	11890.837239433079	6
0	7300	11892.334952194739	5
0	7302	11898.838020974508	4
0	7304	11901.946255234576	5
0	7307	11902.56674617659	6
0	7310	11905.737700776214	5
0	7312	11907.848280062215	6
0	7315	11908.178581343781	5
0	7317	11908.461713769292	6
0	7320	11910.649685156307	7
0	7323	11931.281323667225	6
0	7325	11932.97361158965	5
0	7327	11935.641379008358	6
0	7330	11938.300751036286	7
0	7333	11943.739043961798	8
0	7335	11945.93418759945	9
0	7337	11950.734521837876	8
0	7340	11951.087278913331	7
0	7343	11954.665773123662	8
0	7345	11955.249447044017	7
0	7348	11955.681358153482	8
0	7350	11958.703565381386	7
0	7353	11959.309732192961	8
0	7355	11962.546918506885	9
0	7357	11962.725170574366	8
0	7360	11963.419395948232	7
0	7363	11965.43381567377	6
0	7365	11966.086216871217	7
0	7368	11968.049869836603	6
0	7370	11972.530204218119	5
0	7372	11989.208247329302	6
0	7375	11992.43687510984	5
0	7377	11995.621119655092	4
0	7379	11998.449458760896	5
0	7382	12002.730191715371	6
0	7385	12005.707775187714	7
0	7388	12014.746972797103	6
0	7390	12036.213626839533	5
0	7392	12036.792687945302	4
0	7394	12047.279092476002	3
0	7396	12053.912342989965	4
0	7399	12054.766859582071	5
0	7402	12054.909352310428	4
0	7404	12058.398157042281	3
0	7406	12067.440819291504	2
0	7408	12068.118325291665	1
0	7410	12072.074815948441	2
0	7413	12075.286063946046	3
0	7416	12077.816876706442	4
0	7419	12078.825674166309	5
0	7422	12082.720753340048	4
0	7424	12086.276381609608	3
0	7426	12089.128336098995	2
0	7428	12090.797633536953	3
0	7431	12094.572769487288	2
0	7433	12114.426849626117	1
0	7435	12120.634840950311	2
0	7438	12124.193906340219	3
0	7441	12135.123640864457	2
0	7443	12139.32418883983	3
0	7446	12143.94504559155	4
0	7449	12152.044062350539	5
0	7452	12152.356767299911	6
0	7455	12152.957745096841	7
0	7458	12153.094033372563	6
0	7460	12153.985794011357	5
0	7462	12159.54538835836	4
0	7464	12164.092124872665	3
0	7466	12172.678433266238	4
0	7469	12175.714769477356	3
0	7471	12177.291401634785	4
0	7474	12178.329678911373	5
0	7477	12186.101045601584	4
0	7479	12196.30619442272	5
0	7482	12201.368328280988	4
0	7484	12203.718133975863	3
0	7486	12213.531381384217	2
0	7488	12222.244352197685	3
0	7491	12229.899637612807	4
0	7494	12239.394320684896	3
0	7496	12242.788361739858	4
0	7499	12244.453252564467	3
0	7501	12246.778426782638	4
0	7504	12253.31257825577	5
0	7507	12254.40390078202	4
0	7509	12255.426455831141	3
0	7511	12257.045678358082	4
0	7514	12264.92498378008	3
0	7516	12269.894075650392	2
0	7518	12273.631956775297	1
0	7520	12288.862861619293	2
0	7523	12290.41226010349	3
0	7526	12292.027105495211	4
0	7529	12292.051510514344	5
0	7532	12293.458608900141	4
0	7534	12302.346308463678	3
0	7536	12307.015040349243	4
0	7539	12312.778021407412	3
0	7541	12313.203053801299	4
0	7544	12314.748478095746	3
0	7546	12321.519220618056	4
0	7549	12330.315425210088	5
0	7552	12331.522772587328	6
0	7555	12333.37720262707	7
0	7558	12336.400520078465	6
0	7560	12344.24857423276	7
0	7563	12349.163738170379	6
0	7565	12351.305304333332	7
0	7568	12355.599709597381	8
0	7570	12357.704554210479	7
0	7573	12359.794620634017	8
0	7575	12360.886508542421	9
0	7577	12361.719133609662	8
0	7580	12361.8653752765	9
0	7582	12363.69117511406	8
0	7585	12365.239074782707	7
0	7588	12368.967594800261	6
0	7590	12372.951216857822	5
0	7592	12374.369375239622	4
0	7594	12375.233602209752	5
0	7597	12378.397732989594	4
0	7599	12379.103297422166	3
0	7601	12381.315162712841	4
0	7604	12386.644919327571	5
0	7607	12386.921949109774	4
0	7609	12388.015670817775	3
0	7611	12396.876005501097	2
0	7613	12398.041416463528	1
0	7615	12400.800947135403	2
0	7618	12404.494570742441	1
0	7620	12414.116680574626	2
0	7623	12420.471499486553	1
0	7625	12421.504077803624	2
0	7628	12426.337726044271	1
0	7630	12437.416674606808	0
0	7632	12466.433855898178	1
0	7635	12470.470439649594	2
0	7638	12474.757124992899	3
0	7641	12474.946802707351	4
0	7644	12482.353149906701	3
0	7646	12485.658490312579	2
0	7648	12487.578458819963	3
0	7651	12489.943262279961	4
0	7654	12497.840401979845	3
0	7656	12507.168187371161	2
0	7658	12509.790245443695	3
0	7661	12511.876577826016	2
0	7663	12517.213318435788	3
0	7666	12536.093911302996	2
0	7668	12538.388434158121	1
0	7670	12547.137455831218	2
0	7673	12549.88614282313	1
0	7675	12556.424122856277	2
0	7678	12560.454459367027	1
0	7680	12566.838469923325	2
0	7683	12567.174572695664	1
0	7685	12570.022866487332	2
0	7688	12580.576133186644	3
0	7691	12582.3795861721	4
0	7694	12583.315431477166	3
0	7696	12584.519279953501	4
0	7699	12587.218394717081	3
0	7701	12587.700592512961	2
0	7703	12596.272694770843	3
0	7706	12603.318027936629	4
0	7709	12604.080569983345	5
0	7712	12604.397365932305	4
0	7714	12606.62907704143	5
0	7717	12606.712701073186	4
0	7719	12610.933654745784	5
0	7722	12617.258763228604	4
0	7724	12619.680886764287	5
0	7727	12627.33316023079	6
0	7730	12628.319678120851	5
0	7732	12630.098182587641	4
0	7734	12635.139505077079	5
0	7737	12636.664725901932	4
0	7739	12640.798945832311	5
0	7742	12643.386605258452	4
0	7744	12650.908312281694	5
0	7747	12651.358401760461	6
0	7750	12652.110580290015	5
0	7752	12660.033563743668	6
0	7755	12661.898228478999	7
0	7758	12663.08137288742	6
0	7760	12673.365484417008	5
0	7762	12681.013741901404	4
0	7764	12694.054881565909	5
0	7767	12695.57979375893	6
0	7770	12696.089553737501	5
0	7772	12701.881099551118	4
0	7774	12704.667922310915	5
0	7777	12708.812276420721	4
0	7779	12710.401078189481	5
0	7782	12722.992087626984	4
0	7784	12724.84163040654	3
0	7786	12727.681250271068	4
0	7789	12729.523372460635	5
0	7792	12731.858674576168	4
0	7794	12733.492853365173	5
0	7797	12744.567643369812	6
0	7800	12744.764426788825	7
0	7803	12745.47788339419	8
0	7805	12747.320938132146	9
0	7807	12751.33920056897	10
0	7809	12752.179250400291	11
0	7811	12755.628303263734	10
0	7814	12767.389615028506	9
0	7817	12769.317911796873	10
0	7819	12775.886525832942	11
0	7821	12779.705531651431	10
0	7824	12780.136792517932	9
0	7827	12780.839891527908	8
0	7830	12781.267304521149	7
0	7833	12785.633254349699	6
0	7835	12799.504613932341	5
0	7837	12800.093961495248	6
0	7840	12800.267520688368	5
0	7842	12804.743489004769	4
0	7844	12821.701484978449	3
0	7846	12824.360156144203	4
0	7849	12825.606462907444	3
0	7851	12827.349666299244	4
0	7854	12830.540911623409	5
0	7857	12832.379575782136	6
0	7860	12843.130385377811	7
0	7863	12843.229229385082	6
0	7865	12843.296680223096	7
0	7868	12844.153461809696	6
0	7870	12847.12609510011	5
0	7872	12850.906757785792	4
0	7874	12857.341406106775	5
0	7877	12862.1108052045	4
0	7879	12863.349311754352	3
0	7881	12866.951719468242	4
0	7884	12877.77355392313	3
0	7886	12892.753859198243	4
0	7889	12893.356476968698	5
0	7892	12894.847345282994	6
0	7895	12894.894291129488	5
0	7897	12909.320596195372	4
0	7899	12917.610238274109	3
0	7901	12927.878330303886	2
0	7903	12942.060552979286	3
0	7906	12942.884426726289	4
0	7909	12945.738834394758	5
0	7912	12952.921148726805	6
0	7915	12968.989525106744	5
0	7917	12979.225786417284	6
0	7920	12979.423523581582	5
0	7922	12982.095925772218	6
0	7925	12989.484237132096	5
0	7927	12990.043568108233	4
0	7929	12992.386550924303	5
0	7932	12994.618096444814	6
0	7935	12998.697896194899	5
0	7937	12998.872250093635	6
0	7940	12999.737239745316	5
0	7942	13000.890053526929	6
0	7945	13003.993514737328	7
0	7948	13012.786585492689	6
0	7950	13016.406482170348	5
0	7952	13019.399720788812	4
0	7954	13022.209319469723	3
0	7956	13031.137590486127	4
0	7959	13034.741967017245	3
0	7961	13040.031083974121	4
0	7964	13046.048952010568	3
0	7966	13046.326759428343	4
0	7969	13047.585160907772	3
0	7971	13057.127364769567	2
0	7973	13067.665261503103	3
0	7976	13070.309470936415	4
0	7979	13072.795007447133	5
0	7982	13078.493751565738	4
0	7984	13079.7481017484	5
0	7987	13084.253807856022	4
0	7989	13088.035856925736	5
0	7992	13090.838186449019	4
0	7994	13091.108998390903	3
0	7996	13101.817846532629	4
0	7999	13102.741489504753	3
0	8001	13106.369635861407	4
0	8004	13119.927644118125	5
0	8007	13120.242546715655	6
0	8010	13125.534664288501	7
0	8013	13125.954413147347	8
0	8015	13127.828253050924	7
0	8018	13128.640366767449	6
0	8020	13134.534606961436	5
0	8022	13137.645426208295	4
0	8024	13138.169083895682	3
0	8026	13138.990245961784	4
0	8029	13139.362891394263	5
0	8032	13140.804525752951	6
0	8035	13141.183195731948	7
0	8038	13145.273884420009	6
0	8040	13146.531869424528	5
[...]
1	6967	11394.172613411452	3
1	6969	11394.316690735688	4
1	6971	11395.052812276144	5
1	6973	11395.445218069675	4
1	6976	11397.131384700933	3
1	6979	11399.572623872796	4
1	6981	11399.925957001488	5
1	6983	11404.2354988765	4
1	6986	11414.758458610721	5
1	6988	11416.879220579793	4
1	6991	11419.571435121208	3
1	6994	11423.107947364318	4
1	6996	11424.287698669811	5
1	6998	11435.401525399244	4
1	7001	11436.098807331957	3
1	7004	11436.922211601323	2
1	7007	11437.314404899783	1
1	7010	11438.372493720091	0
1	7013	11439.113747063129	0
1	7015	11453.922503961935	0
1	7017	11454.520892228173	0
1	7020	11454.713163740632	0
1	7023	11458.71607871407	0
1	7025	11459.009358382266	0
1	7027	11459.069645005939	0
1	7030	11471.625830044218	0
1	7033	11471.765783954411	0
1	7035	11472.940942661816	0
1	7038	11474.272773161718	1
1	7040	11477.075956548801	2
1	7042	11479.93438640359	1
1	7045	11480.799709561897	0
1	7048	11481.735240956595	0
1	7050	11483.06483854396	0
1	7052	11497.59106130421	0
1	7055	11499.832990627104	0
1	7058	11501.47248155879	0
1	7060	11516.731625774056	0
1	7062	11520.614313623158	0
1	7065	11522.314718364014	0
1	7067	11530.672003129572	0
1	7070	11537.303372784299	0
1	7073	11537.52594149038	0
1	7075	11545.083709900691	0
1	7078	11550.794617788175	1
1	7080	11551.900377457101	0
1	7083	11558.354939735531	1
1	7085	11562.376430728166	0
1	7088	11564.46767991769	1
1	7090	11566.421463584662	0
1	7093	11579.226682599385	0
1	7095	11588.86643228913	0
1	7097	11590.423351664891	0
1	7099	11595.702141485516	0
1	7101	11597.881875608249	0
1	7104	11598.318383132246	0
1	7107	11600.901114364662	0
1	7110	11604.030411032542	0
1	7112	11605.855444528717	0
1	7114	11610.071313939648	0
1	7117	11613.867421213973	0
1	7119	11615.602903920912	0
1	7121	11617.942449979997	0
1	7124	11625.421555630786	0
1	7127	11625.561171885917	0
1	7129	11629.456100504853	0
1	7132	11630.383275912893	0
1	7134	11632.426229026337	0
1	7137	11643.118652539623	0
1	7140	11644.489534335379	0
1	7142	11650.356858880171	0
1	7144	11655.604936978606	0
1	7147	11659.192781109859	0
1	7150	11665.610931776746	0
1	7153	11670.680797075445	0
1	7155	11673.035951056615	0
1	7157	11676.018278336634	0
1	7159	11678.495475827434	0
1	7161	11679.729049596221	0
1	7164	11689.714415185669	0
1	7166	11690.026241568187	0
1	7169	11692.617216124405	0
1	7172	11700.05180245103	0
1	7174	11706.354064723482	0
1	7177	11715.782571859803	0
1	7180	11715.97327187747	0
1	7182	11716.547899339666	0
1	7185	11718.435098431127	0
1	7188	11718.78523306768	0
1	7190	11726.768520762788	0
1	7192	11729.498233760647	0
1	7194	11731.45960703203	0
1	7197	11734.204543933632	0
1	7199	11738.116986995625	0
1	7201	11742.906398474496	0
1	7204	11745.128195795778	0
1	7206	11746.913788326151	0
1	7209	11747.057121821691	0
1	7211	11752.761825539422	0
1	7214	11754.119305295291	0
1	7217	11755.532421260949	0
1	7219	11756.281753458751	0
1	7222	11757.273141043397	0
1	7224	11772.728948078223	0
1	7227	11777.213187910038	0
1	7229	11783.582608881028	0
1	7232	11783.800372838636	0
1	7235	11784.791670601077	0
1	7238	11791.11488833763	0
1	7240	11797.654335104233	0
1	7242	11803.859789366692	0
1	7245	11813.846863039334	0
1	7248	11817.5008002509	0
1	7250	11819.705308515869	0
1	7253	11819.863624883421	0
1	7255	11821.054618886798	0
1	7257	11822.71402745802	0
1	7259	11831.299284784639	0
1	7262	11837.713166203512	0
1	7265	11842.151397954545	0
1	7267	11843.878838972014	0
1	7270	11844.878404553118	0
1	7273	11850.973424075744	1
1	7275	11862.009975709265	0
1	7278	11862.582308382737	1
1	7280	11868.696942586951	0
1	7283	11871.17659295937	0
1	7285	11873.973041984219	0
1	7288	11874.679541188823	1
1	7290	11880.458376762804	0
1	7293	11881.360788800803	1
1	7295	11888.786872744729	0
1	7298	11890.837239433079	0
1	7300	11892.334952194739	0
1	7302	11898.838020974508	0
1	7304	11901.946255234576	0
1	7307	11902.56674617659	0
1	7310	11905.737700776214	0
1	7312	11907.848280062215	0
1	7315	11908.178581343781	0
1	7317	11908.461713769292	0
1	7320	11910.649685156307	0
1	7323	11931.281323667225	0
1	7325	11932.97361158965	0
1	7327	11935.641379008358	0
1	7330	11938.300751036286	0
1	7333	11943.739043961798	1
1	7335	11945.93418759945	2
1	7337	11950.734521837876	1
1	7340	11951.087278913331	0
1	7343	11954.665773123662	1
1	7345	11955.249447044017	0
1	7348	11955.681358153482	1
1	7350	11958.703565381386	0
1	7353	11959.309732192961	1
1	7355	11962.546918506885	2
1	7357	11962.725170574366	1
1	7360	11963.419395948232	0
1	7363	11965.43381567377	0
1	7365	11966.086216871217	0
1	7368	11968.049869836603	0
1	7370	11972.530204218119	0
1	7372	11989.208247329302	0
1	7375	11992.43687510984	0
1	7377	11995.621119655092	0
1	7379	11998.449458760896	0
1	7382	12002.730191715371	0
1	7385	12005.707775187714	0
1	7388	12014.746972797103	0
1	7390	12036.213626839533	0
1	7392	12036.792687945302	0
1	7394	12047.279092476002	0
1	7396	12053.912342989965	0
1	7399	12054.766859582071	0
1	7402	12054.909352310428	0
1	7404	12058.398157042281	0
1	7406	12067.440819291504	0
1	7408	12068.118325291665	0
1	7410	12072.074815948441	0
1	7413	12075.286063946046	0
1	7416	12077.816876706442	0
1	7419	12078.825674166309	0
1	7422	12082.720753340048	0
1	7424	12086.276381609608	0
1	7426	12089.128336098995	0
1	7428	12090.797633536953	0
1	7431	12094.572769487288	0
1	7433	12114.426849626117	0
1	7435	12120.634840950311	0
1	7438	12124.193906340219	0
1	7441	12135.123640864457	0
1	7443	12139.32418883983	0
1	7446	12143.94504559155	0
1	7449	12152.044062350539	0
1	7452	12152.356767299911	0
1	7455	12152.957745096841	0
1	7458	12153.094033372563	0
1	7460	12153.985794011357	0
1	7462	12159.54538835836	0
1	7464	12164.092124872665	0
1	7466	12172.678433266238	0
1	7469	12175.714769477356	0
1	7471	12177.291401634785	0
1	7474	12178.329678911373	0
1	7477	12186.101045601584	0
1	7479	12196.30619442272	0
1	7482	12201.368328280988	0
1	7484	12203.718133975863	0
1	7486	12213.531381384217	0
1	7488	12222.244352197685	0
1	7491	12229.899637612807	0
1	7494	12239.394320684896	0
1	7496	12242.788361739858	0
1	7499	12244.453252564467	0
1	7501	12246.778426782638	0
1	7504	12253.31257825577	0
1	7507	12254.40390078202	0
1	7509	12255.426455831141	0
1	7511	12257.045678358082	0
1	7514	12264.92498378008	0
1	7516	12269.894075650392	0
1	7518	12273.631956775297	0
1	7520	12288.862861619293	0
1	7523	12290.41226010349	0
1	7526	12292.027105495211	0
1	7529	12292.051510514344	0
1	7532	12293.458608900141	0
1	7534	12302.346308463678	0
1	7536	12307.015040349243	0
1	7539	12312.778021407412	0
1	7541	12313.203053801299	0
1	7544	12314.748478095746	0
1	7546	12321.519220618056	0
1	7549	12330.315425210088	0
1	7552	12331.522772587328	0
1	7555	12333.37720262707	0
1	7558	12336.400520078465	0
1	7560	12344.24857423276	0
1	7563	12349.163738170379	0
1	7565	12351.305304333332	0
1	7568	12355.599709597381	1
1	7570	12357.704554210479	0
1	7573	12359.794620634017	1
1	7575	12360.886508542421	2
1	7577	12361.719133609662	1
1	7580	12361.8653752765	2
1	7582	12363.69117511406	1
1	7585	12365.239074782707	0
1	7588	12368.967594800261	0
1	7590	12372.951216857822	0
1	7592	12374.369375239622	0
1	7594	12375.233602209752	0
1	7597	12378.397732989594	0
1	7599	12379.103297422166	0
1	7601	12381.315162712841	0
1	7604	12386.644919327571	0
1	7607	12386.921949109774	0
1	7609	12388.015670817775	0
1	7611	12396.876005501097	0
1	7613	12398.041416463528	0
1	7615	12400.800947135403	0
1	7618	12404.494570742441	0
1	7620	12414.116680574626	0
1	7623	12420.471499486553	0
1	7625	12421.504077803624	0
1	7628	12426.337726044271	0
1	7630	12437.416674606808	0
1	7632	12466.433855898178	0
1	7635	12470.470439649594	0
1	7638	12474.757124992899	0
1	7641	12474.946802707351	0
1	7644	12482.353149906701	0
1	7646	12485.658490312579	0
1	7648	12487.578458819963	0
1	7651	12489.943262279961	0
1	7654	12497.840401979845	0
1	7656	12507.168187371161	0
1	7658	12509.790245443695	0
1	7661	12511.876577826016	0
1	7663	12517.213318435788	0
1	7666	12536.093911302996	0
1	7668	12538.388434158121	0
1	7670	12547.137455831218	0
1	7673	12549.88614282313	0
1	7675	12556.424122856277	0
1	7678	12560.454459367027	0
1	7680	12566.838469923325	0
1	7683	12567.174572695664	0
1	7685	12570.022866487332	0
1	7688	12580.576133186644	0
1	7691	12582.3795861721	0
1	7694	12583.315431477166	0
1	7696	12584.519279953501	0
1	7699	12587.218394717081	0
1	7701	12587.700592512961	0
1	7703	12596.272694770843	0
1	7706	12603.318027936629	0
1	7709	12604.080569983345	0
1	7712	12604.397365932305	0
1	7714	12606.62907704143	0
1	7717	12606.712701073186	0
1	7719	12610.933654745784	0
1	7722	12617.258763228604	0
1	7724	12619.680886764287	0
1	7727	12627.33316023079	0
1	7730	12628.319678120851	0
1	7732	12630.098182587641	0
1	7734	12635.139505077079	0
1	7737	12636.664725901932	0
1	7739	12640.798945832311	0
1	7742	12643.386605258452	0
1	7744	12650.908312281694	0
1	7747	12651.358401760461	0
1	7750	12652.110580290015	0
1	7752	12660.033563743668	0
1	7755	12661.898228478999	0
1	7758	12663.08137288742	0
1	7760	12673.365484417008	0
1	7762	12681.013741901404	0
1	7764	12694.054881565909	0
1	7767	12695.57979375893	0
1	7770	12696.089553737501	0
1	7772	12701.881099551118	0
1	7774	12704.667922310915	0
1	7777	12708.812276420721	0
1	7779	12710.401078189481	0
1	7782	12722.992087626984	0
1	7784	12724.84163040654	0
1	7786	12727.681250271068	0
1	7789	12729.523372460635	0
1	7792	12731.858674576168	0
1	7794	12733.492853365173	0
1	7797	12744.567643369812	0
1	7800	12744.764426788825	0
1	7803	12745.47788339419	1
1	7805	12747.320938132146	2
1	7807	12751.33920056897	3
1	7809	12752.179250400291	4
1	7811	12755.628303263734	3
1	7814	12767.389615028506	2
1	7817	12769.317911796873	3
1	7819	12775.886525832942	4
1	7821	12779.705531651431	3
1	7824	12780.136792517932	2
1	7827	12780.839891527908	1
1	7830	12781.267304521149	0
1	7833	12785.633254349699	0
1	7835	12799.504613932341	0
1	7837	12800.093961495248	0
1	7840	12800.267520688368	0
1	7842	12804.743489004769	0
1	7844	12821.701484978449	0
1	7846	12824.360156144203	0
1	7849	12825.606462907444	0
1	7851	12827.349666299244	0
1	7854	12830.540911623409	0
1	7857	12832.379575782136	0
1	7860	12843.130385377811	0
1	7863	12843.229229385082	0
1	7865	12843.296680223096	0
1	7868	12844.153461809696	0
1	7870	12847.12609510011	0
1	7872	12850.906757785792	0
1	7874	12857.341406106775	0
1	7877	12862.1108052045	0
1	7879	12863.349311754352	0
1	7881	12866.951719468242	0
1	7884	12877.77355392313	0
1	7886	12892.753859198243	0
1	7889	12893.356476968698	0
1	7892	12894.847345282994	0
1	7895	12894.894291129488	0
1	7897	12909.320596195372	0
1	7899	12917.610238274109	0
1	7901	12927.878330303886	0
1	7903	12942.060552979286	0
1	7906	12942.884426726289	0
1	7909	12945.738834394758	0
1	7912	12952.921148726805	0
1	7915	12968.989525106744	0
1	7917	12979.225786417284	0
1	7920	12979.423523581582	0
1	7922	12982.095925772218	0
1	7925	12989.484237132096	0
1	7927	12990.043568108233	0
1	7929	12992.386550924303	0
1	7932	12994.618096444814	0
1	7935	12998.697896194899	0
1	7937	12998.872250093635	0
1	7940	12999.737239745316	0
1	7942	13000.890053526929	0
1	7945	13003.993514737328	0
1	7948	13012.786585492689	0
1	7950	13016.406482170348	0
1	7952	13019.399720788812	0
1	7954	13022.209319469723	0
1	7956	13031.137590486127	0
1	7959	13034.741967017245	0
1	7961	13040.031083974121	0
1	7964	13046.048952010568	0
1	7966	13046.326759428343	0
1	7969	13047.585160907772	0
1	7971	13057.127364769567	0
1	7973	13067.665261503103	0
1	7976	13070.309470936415	0
1	7979	13072.795007447133	0
1	7982	13078.493751565738	0
1	7984	13079.7481017484	0
1	7987	13084.253807856022	0
1	7989	13088.035856925736	0
1	7992	13090.838186449019	0
1	7994	13091.108998390903	0
1	7996	13101.817846532629	0
1	7999	13102.741489504753	0
1	8001	13106.369635861407	0
1	8004	13119.927644118125	0
1	8007	13120.242546715655	0
1	8010	13125.534664288501	0
1	8013	13125.954413147347	1
1	8015	13127.828253050924	0
1	8018	13128.640366767449	0
1	8020	13134.534606961436	0
1	8022	13137.645426208295	0
1	8024	13138.169083895682	0
1	8026	13138.990245961784	0
1	8029	13139.362891394263	0
1	8032	13140.804525752951	0
1	8035	13141.183195731948	0
1	8038	13145.273884420009	0
1	8040	13146.531869424528	0
1	8042	13147.917219540482	0
1	8045	13150.851126461581	0
1	8048	13157.533854948496	0
1	8050	13164.502546347098	0
1	8052	13165.720016281266	0
1	8055	13170.887535115285	0
1	8057	13178.497406436567	0
1	8060	13180.42560256766	0
1	8062	13181.573236614831	0
1	8065	13196.09746820604	0
1	8067	13196.386797478112	0
1	8069	13204.609291110844	0
1	8072	13207.116743636741	0
1	8075	13207.832926209625	0
1	8077	13211.350785540021	0
1	8080	13223.976727348444	0
1	8082	13226.392782866285	0
1	8085	13228.403285688123	0
1	8087	13238.336694532362	0
1	8090	13241.21105524442	0
1	8093	13250.309571315248	0
1	8095	13251.175749523944	0
1	8097	13258.677874340654	0
1	8100	13264.549814598141	0
1	8103	13266.920959164115	1
1	8105	13267.881107877252	2
1	8107	13270.543784549788	1
1	8110	13274.333966131874	0
1	8113	13275.781070738181	1
1	8115	13277.620183561854	2
1	8117	13278.221907982082	1
1	8120	13282.256883384858	0
1	8123	13283.056266036708	0
1	8125	13289.745740248622	0
1	8127	13290.082190566519	0
1	8129	13302.216309663345	0
1	8132	13312.36102521043	0
1	8135	13312.893682189027	0
1	8137	13319.221009210787	0
1	8140	13319.427323248154	0
1	8143	13322.560261936639	0
1	8145	13324.443234327404	0
1	8147	13329.086836589972	0
1	8149	13329.689418772844	0
1	8152	13330.020921786071	0
1	8154	13331.413258134782	0
1	8156	13332.229964431914	0
1	8158	13333.173137945093	0
1	8161	13334.180093552174	0
1	8164	13336.616651348169	0
1	8166	13336.750616288993	0
1	8169	13338.610164465438	0
1	8171	13340.932360900162	0
1	8174	13342.657867501308	0
1	8177	13344.560055463745	0
1	8179	13344.814791751733	0
1	8181	13345.816497271715	0
1	8183	13346.190609919852	0
1	8186	13347.42025786559	0
1	8189	13357.955883026106	0
1	8191	13358.609545874037	0
1	8193	13359.556844102565	0
1	8196	13362.845679804579	0
1	8199	13364.027458145997	0
1	8202	13365.54928592761	0
1	8204	13368.113326583326	0
1	8206	13372.516896946837	0
1	8208	13374.630274908919	0
1	8210	13375.491212541617	0
1	8213	13379.582800883372	0
1	8215	13387.135441129296	0
1	8218	13393.45481320941	0
1	8220	13396.748079167508	0
1	8223	13403.107171799533	0
1	8226	13415.980029036412	0
1	8229	13424.16110915039	0
1	8232	13424.689440480594	0
1	8234	13429.259492008773	0
1	8236	13433.568278425311	0
1	8238	13436.610052883727	0
1	8241	13458.104233589274	0
1	8244	13458.742215691368	0
1	8247	13470.394317432927	0
1	8250	13473.850875429117	0
1	8253	13478.870571964702	0
1	8255	13480.005108628527	0
1	8258	13480.155982133558	0
1	8260	13487.259046885264	0
1	8263	13488.664668996211	0
1	8265	13489.813590495715	0
1	8268	13490.483706484134	0
1	8270	13491.187272877117	0
1	8272	13492.100547375092	0
1	8274	13504.095745657299	0
1	8277	13508.054835222766	0
1	8280	13509.712408543196	0
1	8282	13510.275881791188	0
1	8285	13512.390333210913	0
1	8288	13512.604703450271	0
1	8290	13520.819011039652	0
1	8292	13520.86648769848	0
1	8295	13523.267100823673	0
1	8298	13530.406231554	0
1	8300	13533.506247840132	0
1	8302	13537.728591644272	0
1	8304	13541.525994292588	0
1	8307	13541.981361955331	0
1	8309	13549.890925716231	0
1	8312	13550.413224872912	0
1	8315	13554.240132765652	0
1	8318	13556.270189286167	0
1	8320	13563.503561666348	0
1	8322	13570.734586992108	0
1	8324	13572.131935615278	0
1	8326	13576.880490467359	0
1	8329	13605.393424408818	0
1	8332	13605.500839681586	0
1	8335	13607.051176372493	0
1	8337	13607.542074982869	0
1	8340	13610.483703755174	0
1	8343	13616.087549808123	0
1	8345	13619.064449150801	0
1	8347	13620.351361851091	0
1	8350	13629.592838052332	0
1	8353	13632.114609664218	1
1	8355	13634.428235502248	0
1	8358	13636.787321995896	0
1	8360	13637.911115041523	0
1	8362	13642.890717822005	0
1	8364	13647.049280252094	0
1	8366	13647.050268150178	0
1	8369	13654.636747261061	0
1	8371	13663.573749956623	0
1	8373	13663.825889239423	0
1	8376	13673.398420780777	0
1	8378	13682.327624797635	0
1	8381	13688.060982267997	0
1	8384	13697.82002340559	0
1	8387	13700.114882202448	0
1	8389	13715.326169818273	0
1	8392	13716.767090604118	0
1	8395	13722.965321425638	0
1	8397	13734.338360323882	0
1	8400	13743.31533391657	0
1	8402	13745.961750052172	0
1	8404	13747.232663877134	0
1	8406	13761.530679249406	0
1	8409	13763.68036433958	0
1	8411	13791.378494406361	0
1	8413	13798.201183000999	0
1	8415	13802.61018811667	0
1	8418	13804.783389428719	0
1	8421	13816.342635876148	0
1	8424	13820.166613113164	0
1	8427	13826.917405789828	0
1	8429	13828.081466868066	0
1	8432	13833.374015304816	0
1	8435	13838.520414296657	0
1	8437	13838.664680394855	0
1	8440	13842.808836125482	0
1	8443	13859.475930724348	1
1	8445	13864.371448233164	0
1	8448	13865.303732695234	1
1	8450	13867.243666209454	0
1	8453	13870.660620306398	1
1	8455	13871.362183881693	0
1	8458	13872.16804693914	0
1	8460	13874.846990723137	0
1	8462	13875.373967837313	0
1	8465	13887.446352686547	0
1	8467	13890.035450856449	0
1	8469	13898.583076857656	0
1	8472	13899.534792828396	0
1	8475	13901.294669416718	0
1	8477	13901.438199884385	0
1	8479	13902.023443061454	0
1	8481	13908.180533762605	0
1	8483	13910.566971911795	0
1	8486	13910.889457953383	0
1	8489	13917.510706708562	0
1	8492	13917.707621295673	0
1	8494	13939.140512049876	0
1	8497	13941.611131831084	0
1	8500	13942.973451175717	0
1	8502	13945.947144994014	0
1	8504	13953.334224651583	0
1	8507	13955.818656681424	0
1	8509	13956.528441049103	0
1	8512	13962.717452116952	0
1	8514	13963.968248215113	0
1	8517	13965.318498851236	0
1	8520	13965.53568722112	0
1	8523	13977.224149798571	1
1	8525	13979.427894515927	0
1	8528	13999.709180408497	0
1	8530	14000.139820009939	0
1	8532	14004.149489229705	0
1	8535	14010.512636761018	0
1	8537	14012.962957733874	0
1	8540	14013.641084014104	0
1	8542	14022.683633039334	0
1	8544	14024.377902914302	0
1	8546	14027.050138861291	0
1	8549	14037.929482009061	0
1	8552	14045.762032797339	0
1	8555	14050.041767566575	0
1	8557	14050.132756336212	0
1	8559	14050.800350337146	0
1	8562	14052.799971260898	0
1	8564	14053.573154003235	0
1	8567	14060.472745866412	0
1	8569	14067.311380884509	0
1	8571	14073.70953430915	0
1	8573	14078.59921408066	0
1	8576	14083.933069076258	0
1	8578	14088.956523590035	0
1	8581	14090.357366592987	0
1	8584	14095.613269986298	0
1	8587	14097.965833486697	0
1	8589	14098.661529082316	0
1	8592	14100.623208173813	0
1	8595	14105.479325410778	0
1	8598	14108.549828960329	0
1	8600	14125.921372137398	0
1	8602	14135.507776024004	0
1	8604	14135.806917109829	0
1	8606	14145.224921433481	0
1	8609	14145.565480089245	0
1	8612	14154.18726185458	0
1	8615	14164.386924549646	0
1	8618	14166.983584312425	1
1	8620	14167.081710317014	0
1	8623	14169.579300891463	0
1	8625	14169.635732686627	0
1	8628	14173.681453123518	0
1	8630	14174.864098398678	0
1	8633	14176.971106476648	1
1	8635	14177.562351499512	0
1	8638	14181.275036288195	0
1	8640	14182.421701424325	0
1	8642	14187.541336061473	0
1	8645	14193.603902014256	0
1	8647	14194.301603081056	0
1	8649	14195.331303688082	0
1	8652	14198.481359155911	0
1	8654	14203.072008332131	0
1	8656	14207.473018323316	0
1	8658	14209.335546065395	0
1	8660	14226.510952733808	0
1	8663	14231.328995618777	0
1	8665	14241.887444615808	0
1	8668	14249.40416997634	0
1	8671	14249.653582458972	0
1	8674	14250.417955370412	0
1	8677	14256.331457012632	0
1	8680	14261.089436656979	0
1	8682	14270.045894569238	0
1	8685	14274.726617511564	0
1	8688	14275.514962304337	1
1	8690	14303.349901693072	0
1	8693	14303.493137033099	0
1	8695	14306.128619606591	0
1	8697	14308.504752261377	0
1	8700	14315.690232289184	0
1	8702	14318.516022937001	0
1	8705	14319.684427901676	0
1	8707	14321.05853903554	0
1	8709	14322.074067435038	0
1	8712	14329.105507481498	0
1	8715	14329.951179136	0
1	8718	14335.014625628855	1
1	8720	14356.550848096926	0
1	8723	14359.641692892073	0
1	8725	14360.423570665635	0
1	8727	14364.326698986323	0
1	8730	14364.340761837926	0
1	8733	14369.277696553105	1
1	8735	14372.777048411333	0
1	8738	14375.300285262542	1
1	8740	14376.899126601108	0
1	8743	14379.687907319735	0
1	8745	14380.580792761318	0
1	8748	14380.823982143684	0
1	8750	14386.664825199301	0
1	8752	14386.806890480099	0
1	8754	14389.621816671587	0
1	8756	14396.320309568676	0

