version 2
run POLICY_1-32-20191213-12:40:10-1220
attr configname POLICY_1
attr datetime 20191213-12:40:10
attr experiment POLICY_1
attr inifile omnetpp.ini
attr iterationvars ""
attr iterationvarsf ""
attr measurement ""
attr network Carrefour
attr processid 1220
attr repetition 32
attr replication #32
attr resultdir results
attr runnumber 32
attr seedset 32
param **.policy 1
param **.delta 0s
param **.tillsNumber 7
param **.capacity 0.3
param **.meanInterArrivalTime 8s
param **.meanItemsInACart 12
param **.interArrivalDistribution 0
param **.itemsInCartDistribution 0

vector 0 Carrefour.decider stats_numCustomers:vector ETV
attr "" ""
attr source numCustomers
vector 1 Carrefour.decider stats_numCustomersQueue:vector ETV
attr "" ""
attr source numCustomersQueue
0	776	1210.441121086547	2
0	778	1218.234197270332	1
0	780	1239.329676577509	2
0	783	1265.245884860771	3
0	786	1271.304962070167	4
0	789	1271.435331794289	5
0	792	1272.564141032418	6
0	795	1275.883376661502	5
0	797	1279.964810680052	6
0	800	1301.801446968495	5
0	802	1309.381112455524	4
0	804	1309.565588791096	5
0	807	1310.245535210264	4
0	809	1318.515443508867	5
0	812	1327.065360753236	4
0	814	1328.544951787292	3
0	816	1330.981175591391	2
0	818	1332.980986672583	3
0	821	1338.674147667675	2
0	823	1346.447173237847	1
0	825	1355.719726486258	2
0	828	1357.897176924522	3
0	831	1367.801365135222	4
0	834	1368.949400013471	3
0	836	1375.101686794906	2
0	838	1379.106016292163	1
0	840	1396.984042497862	2
0	843	1400.135025322925	3
0	846	1400.683813764796	4
0	849	1401.540555556697	5
0	852	1402.525740453271	6
0	855	1403.570709323321	5
0	857	1407.640993559304	6
0	860	1413.687772778107	5
0	862	1416.766852882134	4
0	864	1420.041818215903	3
0	866	1420.734585504111	4
0	869	1423.668398891794	5
0	872	1428.010122216774	4
0	874	1428.174009842727	3
0	876	1432.237248179048	2
0	878	1439.520923546639	1
0	880	1440.661961001411	2
0	883	1441.489557294706	1
0	885	1447.17941206565	2
0	888	1449.081055986724	1
0	890	1450.77641674609	2
0	893	1453.984597947276	3
0	896	1462.489075921023	4
0	899	1465.626963389031	5
0	902	1465.84515901915	6
0	905	1466.982386873782	5
0	907	1470.765023730434	4
0	909	1475.857869713931	3
0	911	1481.365394420548	2
0	913	1482.32342571313	1
0	915	1496.93088389291	2
0	918	1498.584468993604	3
0	921	1509.170147503263	2
0	923	1511.337042424813	3
0	926	1526.712717142764	4
0	929	1529.006223092475	3
0	931	1551.65944608829	2
0	933	1562.523473458229	3
0	936	1566.36704576929	4
0	939	1567.028969289993	5
0	942	1575.635792652416	4
0	944	1585.695128007595	5
0	947	1590.607384796936	6
0	950	1591.403801707271	7
0	953	1603.047195008978	6
0	955	1605.439094985972	5
0	957	1607.532462824587	6
0	960	1613.260891944531	5
0	962	1613.991180356667	4
0	964	1615.741537094042	5
0	967	1620.959914375477	6
0	970	1636.337741444424	5
0	972	1636.876427700063	6
0	975	1638.00613557453	5
0	977	1644.570018316597	4
0	979	1650.047855909018	5
0	982	1654.376620881465	6
0	985	1654.565749172421	7
0	988	1655.009744108841	6
0	990	1656.312597436919	7
0	993	1658.344862814339	6
0	995	1658.449577814766	5
0	997	1663.691046788782	6
0	1000	1668.456128309801	5
0	1002	1668.555700243328	4
0	1004	1685.147462368688	5
0	1007	1685.791352497656	6
0	1010	1690.539013469868	5
0	1012	1696.946829855046	4
0	1014	1697.583525152787	5
0	1017	1703.869135310437	6
0	1020	1704.324263478637	5
0	1022	1711.804122185865	6
0	1025	1712.207705287609	7
0	1028	1714.358145915261	6
0	1030	1722.220904328926	5
0	1032	1726.1019386432	6
0	1035	1728.802953094132	5
0	1037	1736.876775212241	6
0	1040	1738.345466413633	5
0	1042	1740.456258829539	6
0	1045	1745.726669641808	5
0	1047	1746.04990030119	6
0	1050	1752.04198144436	7
0	1053	1752.318287367922	6
0	1055	1752.427724470112	7
0	1058	1759.365376505657	8
0	1060	1759.548518869843	9
0	1062	1766.378813346856	8
0	1065	1774.501236011121	9
0	1067	1788.513514608883	10
0	1069	1788.791703208183	11
0	1071	1789.638607136506	10
0	1074	1790.292645216231	9
0	1077	1792.560126570613	10
0	1079	1792.640542716103	9
0	1082	1797.13641486016	10
0	1084	1797.193851164805	11
0	1086	1797.590497986637	10
0	1089	1799.572478945064	11
0	1091	1799.986217520018	12
0	1093	1801.466257597309	11
0	1096	1803.414468488405	12
0	1098	1803.816934388237	11
0	1101	1805.067457641309	10
0	1104	1813.82810466279	9
0	1107	1817.256681428104	10
0	1109	1817.860590794954	11
0	1111	1821.364254700227	10
0	1114	1822.75746865455	9
0	1117	1826.340958582088	8
0	1120	1829.445821253626	7
0	1123	1834.481176321332	6
0	1125	1845.544075964814	7
0	1128	1847.817517906192	8
0	1130	1853.70473253718	7
0	1133	1853.794756710748	8
0	1135	1854.782543162561	7
0	1138	1858.476395269831	8
0	1140	1859.882429723796	9
0	1142	1860.768348872749	10
0	1144	1865.935811903249	11
0	1146	1867.141945161614	10
0	1149	1869.080904519629	11
0	1151	1874.431104474486	12
0	1153	1875.168396098296	13
0	1155	1876.481146699798	14
0	1157	1882.091133814929	13
0	1160	1882.273168606715	14
0	1162	1884.310832539801	15
0	1164	1888.687434377388	16
0	1166	1891.58412676728	17
0	1168	1893.472441760083	18
0	1170	1894.189257420358	17
0	1173	1896.045453907485	18
0	1175	1899.424910862121	19
0	1177	1901.799771398553	18
0	1180	1903.465322670631	19
0	1182	1906.586621578571	20
0	1184	1908.594725829458	19
0	1187	1916.443159487344	20
0	1189	1919.536077802268	21
0	1191	1921.259186608438	20
0	1194	1933.814609700219	21
0	1196	1934.362236193486	20
0	1199	1935.306761063742	21
0	1201	1935.871912228007	20
0	1204	1938.561594243399	19
0	1207	1940.326724556958	18
0	1210	1942.045605169096	17
0	1213	1943.38571992437	18
0	1215	1949.20882303268	17
0	1218	1951.222666825063	16
0	1221	1952.775972679735	15
0	1224	1953.42688954436	16
0	1226	1955.503232296621	15
0	1229	1957.954636186145	14
0	1232	1960.670576926795	13
0	1235	1961.847571944849	14
0	1237	1964.32480779386	15
0	1239	1964.447580287138	16
0	1241	1966.066603275413	15
0	1244	1968.07718275429	14
0	1247	1969.69124510881	15
0	1249	1973.064576337908	16
0	1251	1973.267213490137	15
0	1254	1973.774895869152	16
0	1256	1976.503045318065	15
0	1259	1980.692594930817	14
0	1262	1984.169570873933	15
0	1264	1985.979561121285	14
0	1267	1987.591054125574	13
0	1270	1992.195813677088	12
0	1273	1995.620033992034	11
0	1276	1999.808701146543	10
0	1279	2000.460374491602	11
0	1281	2001.911552961342	10
0	1284	2002.249960916883	9
0	1287	2003.285705158751	8
0	1290	2004.803352601003	7
0	1293	2006.382553995794	6
0	1295	2008.390652553785	7
0	1298	2008.411942463804	8
0	1300	2012.208773366003	9
0	1302	2012.874774207663	8
0	1305	2014.28675594131	7
0	1308	2015.483068933664	6
0	1310	2018.634884084938	5
0	1312	2019.750357986773	6
0	1315	2020.267598569904	7
0	1318	2022.574599992178	8
0	1320	2025.869304676632	9
0	1322	2031.413123719932	10
0	1324	2031.49028358102	9
0	1327	2032.808193316409	10
0	1329	2033.409618670266	11
0	1331	2043.669965536553	12
0	1333	2045.657587564327	11
0	1336	2047.059206766299	10
0	1339	2049.253095327415	11
0	1341	2050.773600905165	12
0	1343	2054.317778203749	11
0	1346	2058.036578206297	10
0	1349	2058.815197823812	9
0	1352	2059.004780932237	10
0	1354	2073.778638262399	11
0	1356	2074.46239908901	12
0	1358	2079.922486453311	11
0	1361	2081.826243457385	10
0	1364	2085.140224855484	11
0	1366	2089.477032385516	12
0	1368	2092.712952362261	13
0	1370	2098.096682765199	12
0	1373	2100.819373084732	11
0	1376	2101.886323180948	10
0	1379	2106.279074059049	11
0	1381	2107.399445006689	12
0	1383	2107.749180420077	11
0	1386	2108.277172098825	10
0	1389	2109.718078865157	9
0	1392	2111.772398446175	10
0	1394	2117.885486806579	9
0	1397	2127.814941440863	10
0	1399	2131.124656521361	9
0	1402	2132.919131568404	8
0	1405	2139.29420191783	7
0	1408	2140.380082933354	8
0	1410	2141.724185533789	7
0	1413	2146.606672928541	6
0	1415	2155.309839347371	7
0	1418	2165.789608878405	6
0	1420	2169.288188773243	5
0	1422	2175.211218713723	6
0	1425	2175.55988027972	5
0	1427	2178.971204299001	6
0	1430	2181.608155265659	5
0	1432	2185.5156778073	4
0	1434	2186.941425490095	3
0	1436	2199.615623867667	2
0	1438	2202.627995838755	3
0	1441	2208.707567970428	4
0	1444	2211.230585032912	3
0	1446	2214.780954257241	4
0	1449	2217.139201701273	3
0	1451	2219.673773940827	4
0	1454	2223.201538363918	3
0	1456	2226.119286676484	2
0	1458	2235.978267199248	3
0	1461	2236.856326387755	4
0	1464	2246.988038449431	3
0	1466	2247.56254828376	4
0	1469	2252.834341362128	3
0	1471	2260.617728321525	2
0	1473	2263.993806496134	3
0	1476	2266.903772392116	4
0	1479	2269.993448029539	3
0	1481	2272.46852592992	2
0	1483	2274.360887108412	3
0	1486	2276.588194331189	4
0	1489	2277.202205889507	5
0	1492	2278.952955015119	6
0	1495	2287.181201592009	7
0	1498	2287.49922117285	6
0	1500	2293.24026663651	5
0	1502	2297.601710300515	6
0	1505	2304.746496730932	5
0	1507	2305.222268229539	4
0	1509	2307.898208845883	5
0	1512	2310.005522150729	6
0	1515	2313.691482425191	7
0	1518	2315.402087162853	8
0	1520	2316.405654099922	7
0	1523	2317.207646493554	8
0	1525	2318.304647162645	7
0	1528	2319.248387040194	6
0	1530	2338.756080204334	5
0	1532	2340.039264900429	4
0	1534	2340.20371497363	5
0	1537	2340.276775824793	6
0	1540	2350.2879464096	7
0	1543	2352.913167212423	6
0	1545	2354.401381309221	7
0	1548	2354.837086744594	8
0	1550	2355.794089363378	7
0	1553	2355.916861182921	8
0	1555	2365.336053765835	9
0	1557	2368.802166435933	8
0	1560	2368.950795281807	9
0	1562	2372.123683650174	8
0	1565	2372.31361599433	9
0	1567	2382.574746546235	10
0	1569	2383.281179705503	9
0	1572	2391.030109432451	8
0	1575	2391.346473306924	9
0	1577	2394.497370340937	10
0	1579	2397.326820051521	9
0	1582	2401.236810781016	8
0	1585	2402.011884131758	7
0	1588	2404.632756684503	8
0	1590	2407.246596814641	7
0	1593	2409.116678995764	6
0	1595	2410.420549767158	7
0	1598	2413.070934923727	8
0	1600	2415.655424131396	9
0	1602	2416.63466377082	8
0	1605	2417.182745497663	7
0	1608	2422.892591860736	8
0	1610	2423.945937257151	7
0	1613	2425.198886482135	8
0	1615	2426.234003200204	7
0	1618	2427.024584270178	6
0	1620	2429.979311256607	7
0	1623	2431.513023394931	6
0	1625	2431.831441964331	5
0	1627	2440.258242213847	6
0	1630	2453.921100911346	5
0	1632	2465.410225612728	4
0	1634	2470.814100181054	5
0	1637	2473.157481204433	6
0	1640	2474.342347695079	7
0	1643	2478.082892697346	8
0	1645	2480.868608394537	7
0	1648	2495.696060244682	6
0	1650	2510.201938430751	7
0	1653	2517.956530206947	6
0	1655	2521.502039954711	5
0	1657	2523.576245262907	4
0	1659	2529.257944212328	5
0	1662	2537.852643481568	6
0	1665	2540.120075752194	7
0	1668	2540.721655431998	8
0	1670	2544.254824040224	7
0	1673	2546.471156826559	8
0	1675	2559.282627005258	9
0	1677	2565.219910818575	8
0	1680	2571.101711403062	9
0	1682	2578.361413736206	8
0	1685	2580.081408213807	7
0	1688	2580.600272413882	6
0	1690	2592.398224310574	5
0	1692	2599.451882669576	6
0	1695	2600.447473314495	7
0	1698	2601.130302138978	8
0	1700	2603.380661623882	7
0	1703	2609.123078241788	8
0	1705	2615.936559502233	9
0	1707	2616.392735987745	8
0	1710	2617.778388236984	7
0	1713	2618.043265530453	8
0	1715	2622.400866395384	7
0	1718	2623.787904387231	8
0	1720	2626.05061486203	9
0	1722	2629.192209220101	8
0	1725	2629.9778516274	7
0	1728	2631.672767015449	6
0	1730	2635.106315286468	7
0	1733	2636.473865548404	6
0	1735	2645.414368204625	5
0	1737	2655.60935381461	4
0	1739	2656.655120394556	5
0	1742	2682.548344719329	6
0	1745	2686.469020837336	7
0	1748	2689.267336058349	6
0	1750	2689.627675980135	5
0	1752	2694.284134855831	6
0	1755	2695.005459494635	7
0	1758	2696.791145412281	8
0	1760	2696.818172601813	9
0	1762	2706.738301501616	8
0	1765	2710.549126378031	9
0	1767	2711.970631706527	8
0	1770	2712.935616245726	7
0	1773	2714.686387236935	8
0	1775	2716.305486789361	9
0	1777	2735.963325173333	8
0	1780	2736.963920701861	7
0	1783	2738.478876533175	6
0	1785	2739.452414919114	5
0	1787	2742.593207380857	4
0	1789	2746.842337314325	3
0	1791	2755.45909273854	2
0	1793	2760.588896379702	3
0	1796	2763.649525401168	4
0	1799	2766.150731739068	3
0	1801	2770.694451502305	2
0	1803	2770.934927038883	3
0	1806	2773.927260777398	2
0	1808	2777.424972182895	3
0	1811	2780.939446062317	2
0	1813	2788.728880887372	3
0	1816	2796.695768298757	4
0	1819	2797.718510024011	3
0	1821	2803.506926737104	4
0	1824	2819.564104923491	3
0	1826	2822.211991880058	4
0	1829	2823.251557655413	5
0	1832	2823.573125653769	6
0	1835	2826.993584379297	5
0	1837	2828.363391402128	6
0	1840	2833.037736220209	5
0	1842	2833.633080357701	6
0	1845	2837.583605706647	7
0	1848	2839.18065566195	8
0	1850	2841.17399017274	9
0	1852	2846.463727095242	10
0	1854	2853.147860405382	9
0	1857	2854.22341779205	8
0	1860	2856.300280153056	7
0	1863	2857.684374619015	6
0	1865	2858.179640222513	5
0	1867	2858.987272702991	4
0	1869	2865.344059302186	5
0	1872	2869.198012501753	4
0	1874	2870.074221301459	3
0	1876	2876.467214984154	4
0	1879	2876.919279078922	3
0	1881	2879.103620910344	4
0	1884	2881.250339609135	5
0	1887	2881.797343634193	4
0	1889	2882.458832635296	5
0	1892	2882.622115632746	4
0	1894	2882.82203694515	3
0	1896	2890.541499806055	4
0	1899	2895.975114827854	5
0	1902	2896.281995286604	4
0	1904	2899.384505851759	3
0	1906	2902.514294996011	2
0	1908	2906.758706356337	1
0	1910	2916.16368545297	2
0	1913	2921.006273970009	3
0	1916	2925.145159215473	4
0	1919	2928.78495927227	3
0	1921	2935.386228332034	4
0	1924	2935.610465731798	3
0	1926	2939.554706905321	2
0	1928	2940.314217692454	3
0	1931	2941.928689818697	2
0	1933	2946.363953098192	1
0	1935	2949.467212968541	2
0	1938	2954.554153078548	3
0	1941	2958.975644325842	2
0	1943	2959.223194440442	3
0	1946	2964.084690544242	2
0	1948	2973.276534167052	3
0	1951	2974.870438818297	2
0	1953	2978.59429769393	1
0	1955	2990.371910594457	0
0	1957	3004.505545958788	1
0	1960	3004.76712607852	0
0	1962	3005.330314143877	1
0	1965	3005.726121552491	2
0	1968	3013.321582820906	3
0	1971	3024.949638708582	4
0	1974	3029.424989035625	3
0	1976	3031.424905248677	2
0	1978	3033.917542105728	1
0	1980	3038.93416533082	2
0	1983	3071.510724901511	1
0	1985	3073.857847643797	2
0	1988	3080.533258904637	3
0	1991	3082.578709731457	2
0	1993	3082.880106510792	3
0	1996	3083.96174827272	2
0	1998	3092.496906131731	3
0	2001	3102.518382165897	4
0	2004	3104.18761404147	5
0	2007	3104.840932043486	4
0	2009	3105.211037508626	5
0	2012	3109.032670037563	6
0	2015	3111.584596700738	5
0	2017	3113.686954864925	4
0	2019	3113.985161886102	5
0	2022	3114.457113132694	6
0	2025	3115.572048329019	5
0	2027	3117.386201514239	4
0	2029	3120.109738422512	5
0	2032	3121.784174540063	4
0	2034	3123.779925841488	5
0	2037	3131.497467249191	6
0	2040	3133.681331644004	7
0	2043	3137.409780146594	8
0	2045	3138.61045070863	7
0	2048	3138.961625226222	6
0	2050	3139.563179056617	7
0	2053	3140.786608075318	6
0	2055	3143.109019811391	7
0	2058	3143.228437439756	6
0	2060	3145.615173715937	7
0	2063	3146.734626742128	6
0	2065	3150.507147073122	7
0	2068	3153.540341763513	8
0	2070	3161.35867412445	9
0	2072	3161.502157653164	8
0	2075	3166.208708248492	7
0	2078	3166.561782540365	8
0	2080	3169.035622621306	7
0	2083	3179.217100010953	8
0	2085	3183.565929451004	7
0	2088	3187.841540302211	6
0	2090	3193.962875979828	7
0	2093	3194.032818465976	8
0	2095	3201.992778544827	9
0	2097	3203.253883745421	10
0	2099	3204.943218298009	9
0	2102	3207.7090501088	8
0	2105	3212.492748206378	9
0	2107	3212.715789659409	10
0	2109	3212.939565292774	11
0	2111	3221.102457109667	12
0	2113	3230.029294623559	11
0	2116	3230.091338680844	12
0	2118	3250.615827444946	11
0	2121	3262.768733981441	10
0	2124	3266.977544746332	11
0	2126	3269.927116956186	12
0	2128	3274.038491304661	11
0	2131	3275.103573194162	10
0	2134	3279.180543193532	11
0	2136	3284.607685632413	10
0	2139	3293.263150344488	11
0	2141	3297.247632698044	10
0	2144	3297.993609720157	11
0	2146	3309.261588260483	10
0	2149	3309.798501754349	11
0	2151	3309.996046812166	10
0	2154	3310.86660058141	9
0	2157	3311.381893584338	10
0	2159	3316.260046427242	11
0	2161	3320.936025246412	12
0	2163	3330.460421817106	11
0	2166	3332.356973430616	10
0	2169	3333.576695536378	9
0	2172	3336.232709433673	10
0	2174	3336.423166758055	11
0	2176	3338.640393811481	10
0	2179	3339.65755948362	11
0	2181	3340.084223408356	10
0	2184	3340.451455278801	9
0	2187	3343.397321792089	8
0	2190	3344.15376629469	9
0	2192	3347.729472762406	8
0	2195	3349.2616555126	7
0	2198	3349.837242068553	6
0	2200	3351.824071058723	5
0	2202	3353.449093588082	4
0	2204	3354.760503408367	3
0	2206	3357.221701838223	2
0	2208	3365.394073390767	3
0	2211	3365.877780254382	4
0	2214	3366.625458088186	5
0	2217	3368.521809252794	4
0	2219	3371.181095457565	3
0	2221	3382.493084445648	4
0	2224	3383.164366326067	5
0	2227	3385.39965038692	6
0	2230	3388.018835913789	7
0	2233	3399.743145492099	8
0	2235	3405.714786167568	7
0	2238	3409.357812701581	6
0	2240	3410.244748563601	5
0	2242	3413.751289712345	4
0	2244	3414.19009095909	3
0	2246	3417.229752754313	4
0	2249	3420.652893397634	3
0	2251	3428.913601734648	4
0	2254	3429.779253440523	5
0	2257	3430.376000666138	4
0	2259	3444.871151043528	5
0	2262	3450.837994038571	6
0	2265	3452.538870797581	5
0	2267	3453.00146237967	4
0	2269	3453.563148321865	3
0	2271	3468.813391267394	2
0	2273	3471.035369033343	3
0	2276	3471.829485721679	2
0	2278	3474.78997440834	3
0	2281	3488.655387225906	4
0	2284	3488.74331218283	5
0	2287	3489.521779558183	6
0	2290	3489.567344360553	7
0	2293	3494.094788158881	8
0	2295	3496.883076241542	7
0	2298	3501.795259277543	6
0	2300	3504.694930782432	7
0	2303	3504.842552525994	6
0	2305	3505.170523870778	7
0	2308	3511.271837546087	6
0	2310	3511.712323006326	7
0	2313	3512.941740554282	8
0	2315	3531.258258094709	9
0	2317	3531.258841706445	8
0	2320	3535.869650426986	9
0	2322	3537.759176366461	8
0	2325	3547.657765072479	7
0	2328	3548.435374892164	8
0	2330	3549.699883236492	9
0	2332	3551.246367044458	10
0	2334	3552.14809137648	9
0	2337	3555.697426939604	10
0	2339	3559.254958431989	9
0	2342	3560.549515594782	8
0	2345	3560.868622728801	7
0	2348	3565.278624739788	6
0	2350	3569.175046255425	7
0	2353	3572.065170666134	6
0	2355	3580.745540124658	5
0	2357	3581.565209075655	6
0	2360	3582.680775195068	5
0	2362	3585.5664036834	6
0	2365	3586.191267146485	7
0	2368	3586.956998921649	8
0	2370	3591.663832630797	7
0	2373	3592.405915508017	8
0	2375	3595.452968210344	7
0	2378	3595.790037619525	6
0	2380	3596.003116159812	7
0	2383	3598.856732583487	6
0	2385	3600.123826191122	7
0	2388	3601.070793461216	6
0	2390	3602.691191023964	5
0	2392	3606.178849833669	4
0	2394	3607.844364399679	3
0	2396	3619.571881308177	4
0	2399	3622.239705947673	3
0	2401	3625.283591729577	4
0	2404	3628.104796859616	3
0	2406	3628.64729375835	4
0	2409	3631.244718265398	5
0	2412	3639.455650979759	4
0	2414	3639.564229544054	5
0	2417	3643.178109945213	4
0	2419	3644.131392601387	5
0	2422	3653.569071570192	4
0	2424	3663.810299404895	5
0	2427	3667.033113628362	4
0	2429	3668.233709383656	5
0	2432	3671.734883822083	4
0	2434	3671.739374097526	3
0	2436	3673.372924083152	2
0	2438	3675.929442045815	1
0	2440	3691.732296994992	2
0	2443	3717.691715090733	3
0	2446	3719.134241903168	4
0	2449	3723.632816460268	3
0	2451	3737.321214185629	4
0	2454	3737.50985914831	5
0	2457	3738.902287410311	4
0	2459	3747.078960404816	3
0	2461	3747.89959648564	4
0	2464	3749.774204310296	5
0	2467	3751.904176484478	6
0	2470	3753.260308535478	7
0	2473	3769.861440608004	8
0	2475	3784.162772577599	9
0	2477	3785.545367357546	8
0	2480	3790.699935457403	9
0	2482	3793.139896705859	8
0	2485	3803.064023355703	7
0	2488	3803.99162113179	6
0	2490	3804.600432787343	7
0	2493	3809.029060344083	6
0	2495	3812.028594402659	5
0	2497	3813.919506607769	4
0	2499	3814.187228154643	5
0	2502	3815.439136365009	4
0	2504	3818.930909212177	3
0	2506	3822.798736024102	2
0	2508	3824.613262408154	1
0	2510	3833.395652861875	2
0	2513	3842.708508612041	1
0	2515	3850.204450267465	2
0	2518	3855.592630388024	1
0	2520	3862.453446245165	0
0	2522	3867.280465105405	1
0	2525	3869.405429666403	2
0	2528	3870.412580512134	3
0	2531	3873.923388188758	2
0	2533	3880.980330237556	3
0	2536	3882.056652479592	4
0	2539	3883.85482262894	3
0	2541	3888.011127179163	4
0	2544	3894.491242457451	3
0	2546	3909.947539894929	2
0	2548	3913.206841954684	3
0	2551	3914.648947221459	2
0	2553	3925.00922905233	3
0	2556	3929.541392518548	4
0	2559	3939.687311721737	5
0	2562	3941.271789342633	4
0	2564	3944.70752464212	3
0	2566	3949.309486343307	4
0	2569	3951.621908308827	5
0	2572	3953.427758833975	4
0	2574	3957.89354942102	3
0	2576	3958.079560135773	2
0	2578	3959.388657298633	3
0	2581	3965.000302616403	2
0	2583	3968.874147927533	3
0	2586	3971.265134061971	4
0	2589	3975.749243716535	3
0	2591	3982.608836581019	2
0	2593	3983.086691730994	3
0	2596	3983.633955377315	4
0	2599	3986.185427710872	5
0	2602	3986.288243513486	4
0	2604	3986.916933715337	5
0	2607	3988.50341880058	6
0	2610	3990.84960862746	5
0	2612	3996.842231820398	6
0	2615	4001.905175825068	7
0	2618	4003.425671180775	8
0	2620	4005.987194341924	9
0	2622	4010.704946258449	8
0	2625	4018.5960670559	7
0	2628	4018.815265932279	8
0	2630	4020.95026433585	7
0	2633	4022.132273768938	6
0	2635	4026.426198335834	7
0	2638	4028.821379997351	8
0	2640	4033.083294105359	7
0	2643	4033.341161155895	8
0	2645	4034.123077950147	7
0	2648	4038.127902561013	6
0	2650	4038.604815215802	5
0	2652	4043.023216152092	4
0	2654	4050.339973453556	5
0	2657	4050.359217131431	6
0	2660	4053.184737531943	5
0	2662	4055.228148325945	4
0	2664	4067.884935840712	3
0	2666	4070.1520580415	2
0	2668	4082.064690854881	3
0	2671	4096.706834273381	4
0	2674	4098.350248753163	5
0	2677	4103.6885699678	4
0	2679	4108.681584684984	5
0	2682	4111.376083646865	4
0	2684	4113.870079813296	5
0	2687	4116.426206422558	4
0	2689	4122.686533580446	5
0	2692	4125.292808391221	4
0	2694	4125.337028787901	3
0	2696	4132.531004862402	2
0	2698	4133.020830908561	3
0	2701	4133.935881468639	4
0	2704	4137.963806979936	5
0	2707	4145.347635191727	4
0	2709	4149.828014399439	5
0	2712	4152.374660096984	4
0	2714	4152.500871959576	5
0	2717	4154.037609298192	6
0	2720	4159.972913128932	5
0	2722	4160.856638948239	6
0	2725	4164.284991132808	5
0	2727	4167.722818387522	4
0	2729	4170.057600851965	3
0	2731	4174.901690231259	4
0	2734	4186.800586907649	5
0	2737	4189.57806042698	4
0	2739	4201.297150391287	3
0	2741	4204.400047218956	4
0	2744	4205.027006668675	5
0	2747	4205.2331981827	6
0	2750	4211.149959150964	7
0	2753	4212.295211876111	6
0	2755	4215.071372337083	7
0	2758	4215.981292138385	6
0	2760	4221.674069370034	5
0	2762	4225.517979810896	6
0	2765	4226.271531729794	7
0	2768	4229.539548030667	6
0	2770	4233.186006420371	5
0	2772	4239.385730953872	4
0	2774	4258.970133473718	3
0	2776	4272.778859630379	2
0	2778	4273.732008402423	3
0	2781	4286.363149903581	4
0	2784	4298.327485453344	5
0	2787	4302.608414265608	4
0	2789	4303.033948034108	3
0	2791	4314.59372970853	2
0	2793	4314.662451617831	1
0	2795	4318.842246298575	2
0	2798	4322.836421201913	1
0	2800	4338.818764257787	2
0	2803	4342.637199465847	3
0	2806	4350.920767988605	4
0	2809	4362.134726129717	5
0	2812	4363.670119868623	4
0	2814	4369.053383707114	5
0	2817	4369.37501878688	6
0	2820	4389.537204420054	7
0	2823	4389.538759536342	6
0	2825	4391.106576780463	5
0	2827	4402.425540215099	4
0	2829	4405.243878142469	5
0	2832	4410.881401119376	6
0	2835	4413.952144415896	7
0	2838	4414.486367412821	6
0	2840	4424.542030044778	7
0	2843	4427.709678021028	6
0	2845	4433.11390121147	7
0	2848	4433.414874866115	6
0	2850	4436.648809008443	5
0	2852	4437.093517121941	6
0	2855	4447.2619704387	7
0	2858	4449.410236235637	8
0	2860	4451.339637272135	7
0	2863	4455.790414533327	6
0	2865	4456.290968899529	7
0	2868	4456.966289652221	6
0	2870	4460.246255195359	7
0	2873	4465.360010651537	8
0	2875	4466.947208979818	9
0	2877	4471.055570477585	8
0	2880	4477.580271527043	9
0	2882	4486.481925157124	10
0	2884	4490.779766290685	9
0	2887	4491.635048057884	8
0	2890	4492.765201492114	7
0	2893	4492.844537864336	8
0	2895	4494.931611516159	9
0	2897	4500.782127196038	10
0	2899	4507.001518368423	9
0	2902	4508.602846072776	8
0	2905	4512.077772645586	7
0	2908	4518.077776939455	6
0	2910	4522.204382100084	7
0	2913	4523.397682977478	8
0	2915	4524.82420404937	7
0	2918	4529.881318569276	6
0	2920	4535.759721115072	5
0	2922	4537.511795146483	4
0	2924	4538.296686833096	5
0	2927	4543.640786002603	6
0	2930	4545.412887835103	7
0	2933	4549.859870315365	8
0	2935	4550.320069773988	9
0	2937	4551.080046930531	8
0	2940	4552.703312174088	9
0	2942	4554.522164624493	8
0	2945	4557.598504466155	7
0	2948	4557.810034056944	8
0	2950	4567.780872141195	9
0	2952	4571.19948000759	8
0	2955	4575.332388740452	7
0	2958	4576.182699438411	6
0	2960	4578.286563938953	5
0	2962	4583.035701439941	4
0	2964	4584.224692076805	5
0	2967	4584.731386406447	4
0	2969	4589.380461021408	5
0	2972	4591.615096470034	4
0	2974	4593.482255590091	5
0	2977	4594.905925384218	6
0	2980	4596.941766044123	5
0	2982	4598.413727558762	6
0	2985	4599.323967878066	5
0	2987	4605.486723727702	4
0	2989	4605.497315340811	5
0	2992	4606.972041597852	6
0	2995	4610.070982061391	7
0	2998	4614.778910104784	8
0	3000	4616.884010715108	7
0	3003	4617.193928997072	6
0	3005	4617.714458751806	7
0	3008	4620.331128863141	6
0	3010	4624.540626018821	7
0	3013	4625.098901183942	8
0	3015	4637.874699990356	7
0	3018	4640.552163468333	8
0	3020	4648.311484999712	9
0	3022	4649.868534332444	8
0	3025	4652.919072490224	7
0	3028	4658.547662328668	6
0	3030	4667.321171487262	5
0	3032	4672.010517083266	6
0	3035	4672.252735603591	5
0	3037	4681.317302438864	4
0	3039	4685.632910578715	5
0	3042	4692.939248875282	6
0	3045	4693.061917821755	7
0	3048	4695.445226905413	6
0	3050	4707.247529116937	5
0	3052	4711.108975400782	6
0	3055	4717.799973288319	7
0	3058	4720.123886370152	8
0	3060	4723.911091907212	9
0	3062	4726.575236754556	10
0	3064	4726.978741125898	9
0	3067	4727.234611484594	8
0	3070	4730.594653497377	9
0	3072	4731.946214906061	8
0	3075	4732.626432480486	7
0	3078	4734.031143571436	8
0	3080	4735.376142624045	7
0	3083	4737.651501610869	6
0	3085	4740.886671126652	5
0	3087	4745.507032031038	4
0	3089	4760.746271669339	5
0	3092	4768.617605329676	6
0	3095	4772.247821964615	5
0	3097	4777.239328885127	6
0	3100	4786.128799610932	7
0	3103	4795.652491925915	6
0	3105	4799.121360028762	7
0	3108	4800.624066988015	6
0	3110	4804.344703984327	5
0	3112	4804.633460356942	6
0	3115	4804.844991789805	7
0	3118	4815.24661938753	6
0	3120	4824.489950853219	7
0	3123	4825.192887949633	6
0	3125	4832.578037400029	5
0	3127	4833.686209741432	6
0	3130	4846.031272253004	7
0	3133	4847.354860322824	6
0	3135	4849.436009397492	5
0	3137	4852.772863513666	6
0	3140	4854.634002837406	5
0	3142	4856.724567174707	6
0	3145	4858.918004738898	5
0	3147	4859.291045356062	4
0	3149	4863.230123511682	5
0	3152	4867.37706520959	6
0	3155	4872.266184588343	5
0	3157	4874.407250034757	6
0	3160	4875.419121129381	7
0	3163	4876.789878807918	6
0	3165	4877.716899955481	5
0	3167	4879.245368991049	6
0	3170	4881.451433144204	7
0	3173	4883.840781418057	6
0	3175	4895.076949048588	5
0	3177	4896.773993847494	6
0	3180	4899.230873562159	5
0	3182	4902.941849399812	6
0	3185	4903.921704429287	7
0	3188	4905.77819714192	8
0	3190	4916.131263102351	9
0	3192	4921.09670283563	8
0	3195	4921.747606831912	7
0	3198	4932.717063660998	8
0	3200	4942.45624545278	9
0	3202	4944.630680977633	8
0	3205	4957.795428926586	7
0	3208	4965.822592449009	8
0	3210	4966.747051712255	7
0	3213	4967.082400563301	8
0	3215	4968.238465945569	9
0	3217	4968.681193793784	8
0	3220	4970.411906184538	9
0	3222	4970.998860705678	10
0	3224	4971.107826589668	9
0	3227	4988.59208470663	8
0	3230	4996.301098211001	7
0	3233	4997.667333505065	8
0	3235	5002.616807387235	7
0	3238	5003.351479476031	6
0	3240	5003.464753895345	7
0	3243	5016.607338847437	6
0	3245	5017.097380104011	5
0	3247	5017.627138285628	6
0	3250	5021.482788817543	5
0	3252	5025.414972186728	6
0	3255	5027.91401108129	5
0	3257	5030.552371513956	6
0	3260	5044.785837534311	5
0	3262	5051.411041494474	4
0	3264	5053.655882184426	3
0	3266	5058.869945197574	4
0	3269	5059.220419974588	3
0	3271	5059.445927223168	4
0	3274	5059.676582225781	3
0	3276	5067.211900502859	4
0	3279	5073.460734102177	5
0	3282	5074.254514122031	4
0	3284	5078.100229237942	5
0	3287	5079.423905933186	4
0	3289	5091.221180686563	3
0	3291	5091.564723895476	4
0	3294	5097.403299432955	5
0	3297	5098.234460705511	4
0	3299	5098.34106858807	5
0	3302	5104.421937818646	4
0	3304	5109.652780663818	3
0	3306	5120.820806890492	2
0	3308	5137.352468330389	1
0	3310	5149.146509706262	2
0	3313	5149.737282093497	3
0	3316	5156.637789147785	4
0	3319	5157.402372236707	3
0	3321	5168.371046384446	4
0	3324	5168.972589775738	5
0	3327	5182.129883844828	4
0	3329	5185.10180570342	3
0	3331	5190.629954055793	2
0	3333	5198.347009354213	3
0	3336	5201.047074445361	4
0	3339	5201.652858855336	5
0	3342	5202.920386841118	4
0	3344	5213.852758527283	5
0	3347	5223.809606347116	6
0	3350	5232.718259498726	7
0	3353	5233.01236353603	6
0	3355	5236.680372749559	5
0	3357	5237.437544271967	4
0	3359	5238.222120813556	3
0	3361	5241.311096676194	2
0	3363	5245.134599606955	3
0	3366	5252.390635197803	2
0	3368	5259.593326348027	1
0	3370	5265.707109656407	2
0	3373	5275.034918073191	1
0	3375	5280.235518700369	2
0	3378	5282.012323366897	3
0	3381	5283.310621592708	4
0	3384	5291.453830194858	5
0	3387	5294.79537923883	4
0	3389	5298.912831759447	3
0	3391	5302.140716656697	4
0	3394	5303.961338369795	3
0	3396	5313.491804709847	2
0	3398	5323.758905607885	3
0	3401	5325.487242461753	4
0	3404	5328.400256611522	5
0	3407	5328.650078169832	6
0	3410	5332.642536518519	5
0	3412	5334.895107476679	6
0	3415	5345.475956794232	5
0	3417	5348.466154116754	4
0	3419	5353.256908811469	5
0	3422	5365.770647785998	4
0	3424	5366.248055965706	5
0	3427	5366.534833192584	6
0	3430	5369.243319600435	7
0	3433	5371.80751695223	8
0	3435	5373.294409183488	9
0	3437	5375.60508112879	10
0	3439	5377.228310992696	11
0	3441	5378.794645211424	10
0	3444	5385.316303217305	11
0	3446	5385.938102070653	10
0	3449	5386.067641767838	9
0	3452	5388.11258107784	10
0	3454	5390.162987428659	11
0	3456	5390.437591864495	10
0	3459	5391.573055910283	11
0	3461	5393.100397231861	10
0	3464	5394.049425764254	11
0	3466	5395.640611058452	12
0	3468	5404.177275199157	13
0	3470	5416.98166614997	14
0	3472	5420.422283436844	15
0	3474	5422.788275194948	14
0	3477	5423.017189435651	13
0	3480	5424.689355645833	12
0	3483	5426.559236108225	13
0	3485	5428.692914993162	14
0	3487	5429.361368424713	13
0	3490	5429.794111453335	14
0	3492	5431.575506679854	13
0	3495	5432.458805922668	12
0	3498	5435.752228661935	13
0	3500	5446.029653738836	12
0	3503	5447.677985483499	13
0	3505	5448.038968763021	12
0	3508	5448.422518469339	11
0	3511	5453.387270305706	10
0	3514	5455.918978938279	9
0	3517	5456.730400682629	10
0	3519	5457.96410016246	11
0	3521	5459.141574889148	10
0	3524	5461.740765395549	11
0	3526	5461.919373541194	10
0	3529	5462.361640198242	9
0	3532	5463.399543583542	8
0	3535	5464.185821611006	7
0	3538	5469.908452502945	6
0	3540	5475.967760398997	5
0	3542	5476.982564078063	6
0	3545	5484.089742071062	5
0	3547	5484.954868505756	6
0	3550	5491.313693259858	7
0	3553	5491.648759704552	8
0	3555	5493.339457900515	7
0	3558	5494.647384106074	8
0	3560	5496.860730958182	9
0	3562	5497.53178269676	8
0	3565	5499.709758299545	9
0	3567	5504.255389619032	8
0	3570	5506.305908867681	9
0	3572	5512.771258629105	8
0	3575	5513.863016625992	7
0	3578	5515.338398633457	8
0	3580	5521.223370398919	9
0	3582	5524.587562924306	10
0	3584	5524.827150277534	9
0	3587	5526.918620946896	10
0	3589	5529.31401498985	9
0	3592	5534.131580881587	10
0	3594	5541.751142606154	9
0	3597	5542.726172278428	10
0	3599	5552.074853022517	9
0	3602	5559.396703050239	8
0	3605	5565.372248470379	9
0	3607	5567.978825149712	10
0	3609	5570.891777327271	9
0	3612	5572.411038098129	8
0	3615	5573.555423768615	7
0	3618	5582.142342802069	8
0	3620	5600.432276001571	7
0	3623	5602.759031964681	8
0	3625	5603.197500879924	9
0	3627	5609.333243513721	8
0	3630	5612.935218895908	9
0	3632	5615.344350794731	8
0	3635	5625.704582092175	7
0	3638	5626.950547668846	8
0	3640	5628.552052295823	9
0	3642	5630.655461513041	8
0	3645	5636.822245649529	9
0	3647	5645.616603084518	10
0	3649	5646.441431067977	11
0	3651	5656.489731966814	10
0	3654	5666.635467271279	9
0	3657	5666.764434527858	10
0	3659	5666.832211686674	11
0	3661	5667.090144861866	10
0	3664	5678.967711597723	11
0	3666	5685.343386886712	10
0	3669	5685.441088661059	9
0	3672	5692.335080729182	8
0	3675	5692.772789312312	9
0	3677	5692.824337600539	10
0	3679	5699.238323424885	9
0	3682	5700.2565295552	8
0	3685	5703.462707495516	7
0	3688	5705.247693516709	6
0	3690	5710.810935485506	5
0	3692	5717.505187384589	6
0	3695	5717.761701838291	5
0	3697	5722.078572647057	6
0	3700	5723.675498029032	5
0	3702	5729.635116726441	6
0	3705	5731.322567832536	7
0	3708	5732.636193607177	6
0	3710	5747.560022934545	7
0	3713	5747.628269241855	6
0	3715	5752.747113384371	5
0	3717	5755.618354775596	4
0	3719	5760.148436730821	3
0	3721	5760.784995431564	2
0	3723	5765.431283160535	3
0	3726	5774.563857392466	2
0	3728	5778.349952340164	3
0	3731	5781.960586436915	4
0	3734	5782.71573983713	3
0	3736	5786.097070906455	4
0	3739	5790.69509146113	5
0	3742	5793.915018526265	4
0	3744	5796.046151512954	5
0	3747	5801.324223358622	6
0	3750	5805.517803351061	7
0	3753	5812.795415880149	8
0	3755	5813.695677354181	7
0	3758	5816.366981869886	6
0	3760	5820.267881026346	7
0	3763	5821.995065630329	6
0	3765	5825.629583213854	7
0	3768	5828.306801638838	6
0	3770	5829.095111947153	7
0	3773	5837.367077922011	8
0	3775	5839.091469620126	7
0	3778	5842.883828443388	6
0	3780	5844.477783755645	5
0	3782	5844.774162361789	6
0	3785	5846.549744312375	5
0	3787	5846.963214649341	4
0	3789	5847.306870927598	5
0	3792	5852.389950774089	4
0	3794	5853.463419799881	3
0	3796	5858.679531154629	4
0	3799	5865.787842880436	5
0	3802	5872.735609668329	6
0	3805	5873.10363918489	5
0	3807	5881.698163948965	6
0	3810	5881.72063316337	7
0	3813	5885.051736181892	6
0	3815	5887.971590862282	7
0	3818	5897.774905241302	6
0	3820	5900.425788481879	5
0	3822	5900.674362368443	6
0	3825	5902.40682423028	5
0	3827	5903.635737750019	4
0	3829	5904.834027534909	5
0	3832	5907.506681758653	4
0	3834	5913.157473414077	5
0	3837	5913.958386127941	6
0	3840	5924.840642116396	7
0	3843	5926.000203957739	8
0	3845	5927.133584062086	7
0	3848	5927.851063246043	6
0	3850	5935.449081135369	7
0	3853	5936.152923605947	6
0	3855	5939.739321572378	7
0	3858	5939.79203377091	8
0	3860	5941.465791167629	7
0	3863	5946.711057908235	8
0	3865	5965.537450263935	7
0	3868	5967.854519450809	8
0	3870	5970.059717151911	7
0	3873	5972.074865179059	6
0	3875	5978.017758556303	5
0	3877	5983.746098067148	6
0	3880	5992.777035181428	7
0	3883	5995.00482962804	8
0	3885	5995.504628424901	9
0	3887	5995.679953711128	8
0	3890	6000.397416471651	9
0	3892	6000.874104791885	10
0	3894	6004.701525059491	9
0	3897	6016.994256504713	8
0	3900	6017.211034824731	9
0	3902	6020.077071019129	8
0	3905	6022.810019337671	7
0	3908	6023.068216497361	6
0	3910	6028.833309527812	5
0	3912	6030.077300902074	4
0	3914	6036.971523850973	3
0	3916	6049.849787847163	2
0	3918	6057.687575662661	1
0	3920	6060.242968935106	2
0	3923	6061.941520899777	1
0	3925	6066.88510706591	2
0	3928	6079.30206463284	3
0	3931	6086.171948166776	2
0	3933	6088.996206753947	3
0	3936	6097.640940462401	4
0	3939	6101.040821138261	3
0	3941	6102.227912662149	4
0	3944	6111.386572295856	5
0	3947	6112.438287929642	6
0	3950	6114.596630955516	7
0	3953	6116.359495813829	6
0	3955	6120.476192998581	7
0	3958	6128.821028568406	6
0	3960	6130.497395393486	7
0	3963	6130.901993577443	6
0	3965	6133.494962496016	7
0	3968	6134.745101691862	8
0	3970	6137.657931531713	9
0	3972	6137.965548660147	10
0	3974	6141.351076972052	9
0	3977	6150.77861915767	8
0	3980	6151.624600659467	7
0	3983	6153.767347148945	6
0	3985	6154.640411671938	5
0	3987	6172.151597812671	4
0	3989	6172.570708294123	5
0	3992	6173.821269746627	6
0	3995	6175.673857055461	5
0	3997	6184.850191006901	4
0	3999	6196.525852921426	5
0	4002	6200.17355011973	4
0	4004	6200.615885412651	3
0	4006	6210.685245044097	4
0	4009	6213.308601392425	5
0	4012	6215.761071704541	4
0	4014	6232.512506992414	3
0	4016	6243.576237639916	4
0	4019	6259.193782409649	3
0	4021	6263.195307363559	4
0	4024	6264.549480524446	3
0	4026	6270.613804517755	2
0	4028	6271.903613447246	3
0	4031	6276.912156560139	4
0	4034	6278.73125536953	3
0	4036	6279.970005929142	4
0	4039	6281.118479803623	5
0	4042	6290.983398187229	4
0	4044	6293.986176666913	5
0	4047	6297.221890911815	4
0	4049	6297.552603130092	3
0	4051	6302.767263834487	2
0	4053	6308.513048233087	1
0	4055	6313.209442855786	0
0	4057	6314.403135820383	1
0	4060	6329.437343433133	2
0	4063	6330.338388838304	3
0	4066	6331.610456749278	2
0	4068	6332.900261580986	1
0	4070	6334.166124317791	2
0	4073	6335.965259641839	1
0	4075	6351.912074604059	2
0	4078	6353.101157388325	3
0	4081	6356.461844109534	4
0	4084	6357.04360430039	3
0	4086	6359.872629562496	4
0	4089	6361.130011751449	5
0	4092	6362.306066491815	6
0	4095	6365.369385680379	7
0	4098	6366.033654983674	8
0	4100	6367.623301065573	9
0	4102	6369.718336359353	10
0	4104	6370.077183108189	9
0	4107	6370.752249817876	8
0	4110	6374.681193813282	9
0	4112	6376.2400248958	8
0	4115	6377.523346305599	9
0	4117	6378.480899947091	8
0	4120	6379.092699221477	9
0	4122	6387.605429423207	10
0	4124	6388.739502723306	11
0	4126	6391.659099366394	12
0	4128	6393.693366936634	13
0	4130	6394.086888328887	12
0	4133	6397.371108268265	13
0	4135	6405.420284723629	14
0	4137	6407.356118921713	15
0	4139	6407.846538560268	16
0	4141	6413.223754493089	17
0	4143	6414.443469551773	16
0	4146	6414.595378808715	15
0	4149	6417.390215934526	16
0	4151	6427.44898356155	15
0	4154	6430.014883318017	14
0	4157	6431.162947690674	13
0	4160	6433.140972485432	12
0	4163	6433.542803779686	13
0	4165	6438.038550678	14
0	4167	6443.102371103244	13
0	4170	6446.333425944138	12
0	4173	6453.554852962923	13
0	4175	6453.671387092579	12
0	4178	6455.098567487306	11
0	4181	6456.475221213221	12
0	4183	6459.719733507659	13
0	4185	6460.972494083973	12
0	4188	6462.214578352697	11
0	4191	6465.967429123824	12
0	4193	6466.670322345338	11
0	4196	6469.457609190553	10
0	4199	6471.755762297329	11
0	4201	6477.645327228334	10
0	4204	6478.296888143214	11
0	4206	6478.648775695556	10
0	4209	6479.040457638022	9
0	4212	6483.439217262876	10
0	4214	6492.333543593781	9
0	4217	6497.203616214726	8
0	4220	6501.313885499773	7
0	4223	6506.423396773434	6
0	4225	6506.818521137055	7
0	4228	6508.630180673187	6
0	4230	6521.11631099662	7
0	4233	6522.035054787712	8
0	4235	6522.572655512611	9
0	4237	6526.041868728027	8
0	4240	6526.610882253141	7
0	4243	6527.811209459003	6
0	4245	6530.409949681433	5
0	4247	6534.54659921238	6
0	4250	6538.14418866149	7
0	4253	6538.537808547824	6
0	4255	6544.336973966373	7
0	4258	6546.36496683467	8
0	4260	6549.841458945419	7
0	4263	6550.374520022332	6
0	4265	6555.622681489806	7
0	4268	6558.112623766928	8
0	4270	6560.031678381301	9
0	4272	6564.209791519624	8
0	4275	6573.454062014644	9
0	4277	6583.576698799255	8
0	4280	6587.773833666213	9
0	4282	6588.088031262351	8
0	4285	6590.204525038545	7
0	4288	6595.534960223354	6
0	4290	6599.318629944263	5
0	4292	6611.667464859424	4
0	4294	6617.412419485778	5
0	4297	6623.660591915869	4
0	4299	6627.497026825669	3
0	4301	6629.212387600382	4
0	4304	6630.882372761009	5
0	4307	6647.195838813852	6
0	4310	6648.130878024773	5
0	4312	6651.271058477006	4
0	4314	6659.413819124778	5
0	4317	6660.846553330664	6
0	4320	6667.954149594828	5
0	4322	6671.933108283425	4
0	4324	6672.665760636093	5
0	4327	6681.877333534118	6
0	4330	6691.11052591326	7
0	4333	6696.62829782982	6
0	4335	6699.547344125799	5
0	4337	6700.973009351654	6
0	4340	6701.79432817792	7
0	4343	6708.525254849342	6
0	4345	6709.428567609439	7
0	4348	6710.416230940045	8
0	4350	6717.339360578578	9
0	4352	6724.065954876028	8
0	4355	6724.285927791683	9
0	4357	6724.511835081734	10
0	4359	6729.605694436994	11
0	4361	6738.926896353635	10
0	4364	6740.394216697332	11
0	4366	6750.540417614919	10
0	4369	6751.74786036107	9
0	4372	6756.052434436804	8
0	4375	6759.954355548647	7
0	4378	6770.163753198051	6
0	4380	6774.784658243422	7
0	4383	6775.909273781015	6
0	4385	6776.182466701378	5
0	4387	6783.361428798004	6
0	4390	6794.805563091257	5
0	4392	6794.855573754248	6
0	4395	6808.047343587735	7
0	4398	6808.936431273109	6
0	4400	6809.550760036756	7
0	4403	6810.633804553159	8
0	4405	6812.50646891993	9
0	4407	6816.168318129883	8
0	4410	6818.844194192992	7
0	4413	6820.172473594002	8
0	4415	6825.625407138127	9
0	4417	6836.863728043964	10
0	4419	6838.990820301573	11
0	4421	6842.475750725354	10
0	4424	6846.433756526123	9
0	4427	6847.487020705718	8
0	4430	6847.770451268059	7
0	4433	6849.880647378866	6
0	4435	6850.001929383	5
0	4437	6853.320027234312	6
0	4440	6853.683278993826	5
0	4442	6860.109080080526	4
0	4444	6860.688303203193	3
0	4446	6861.818934652464	4
0	4449	6871.603743557435	5
0	4452	6873.719743697577	4
0	4454	6874.781783212516	5
0	4457	6875.882050877961	4
0	4459	6886.187422324896	5
0	4462	6887.78578185193	6
0	4465	6891.045784721796	5
0	4467	6893.852958701115	4
0	4469	6894.290325885213	5
0	4472	6899.153575911159	4
0	4474	6905.457778898675	5
0	4477	6906.914873324927	6
0	4480	6909.238819169461	7
0	4483	6909.858356422671	8
0	4485	6914.458747219618	9
0	4487	6917.848583225435	8
0	4490	6919.113255016526	9
0	4492	6920.126918595992	8
0	4495	6928.125144184319	9
0	4497	6930.958055740648	10
0	4499	6937.057071833786	9
0	4502	6939.274890626795	10
0	4504	6941.824301998483	11
0	4506	6943.177060850294	12
0	4508	6950.512700292985	13
0	4510	6950.775594214154	12
0	4513	6952.856557337047	11
0	4516	6956.069533905857	10
0	4519	6961.513594892328	11
0	4521	6964.241638149583	12
0	4523	6965.915109315524	11
0	4526	6966.132770136155	12
0	4528	6969.635789162186	11
0	4531	6971.402305266192	10
0	4534	6972.554712627731	9
0	4537	6976.810298902132	10
0	4539	6977.813691556403	11
0	4541	6978.096615323068	12
0	4543	6979.509855024421	13
0	4545	6980.878048008879	12
0	4548	6989.30554661307	11
0	4551	7005.378942249094	12
0	4553	7007.058745510183	11
0	4556	7008.231313591551	10
0	4559	7009.52340972069	9
0	4562	7013.715110172995	10
0	4564	7014.227922591612	9
0	4567	7026.878368418884	10
0	4569	7029.531938567975	11
0	4571	7034.578772103832	12
0	4573	7034.869739178315	11
0	4576	7040.054948616895	10
0	4579	7040.459748530109	11
0	4581	7046.406919830863	10
0	4584	7046.681632493751	9
0	4587	7047.328514669499	10
0	4589	7048.895665446805	11
0	4591	7049.342464183042	12
0	4593	7049.68295830092	11
0	4596	7050.263903267482	12
0	4598	7055.814545455453	13
0	4600	7061.40096782427	12
0	4603	7065.821339370002	11
0	4606	7066.805274511768	10
0	4609	7068.348373509572	11
0	4611	7068.514702024929	10
0	4614	7071.926995843553	9
0	4617	7074.632574395484	8
0	4620	7074.985110598747	7
0	4623	7077.732638836667	6
0	4625	7077.979718408833	5
0	4627	7083.124208182117	4
0	4629	7088.979976697973	5
0	4632	7100.651892383352	6
0	4635	7100.987960452885	5
0	4637	7102.502459544111	6
0	4640	7102.545837739524	7
0	4643	7107.384785157667	6
0	4645	7118.027155960775	5
0	4647	7120.742333890136	6
0	4650	7124.392277878047	5
0	4652	7129.879562953587	6
0	4655	7134.546459610593	5
0	4657	7144.564400270092	4
0	4659	7145.065672749403	5
0	4662	7145.442004790553	6
0	4665	7147.848013281894	5
0	4667	7152.439676377615	4
0	4669	7159.316856400436	5
0	4672	7167.63695300028	6
0	4675	7167.710661669677	7
0	4678	7168.892024828207	6
0	4680	7173.119413233126	5
0	4682	7181.741699049524	6
0	4685	7189.076237045969	7
0	4688	7197.891963485792	6
0	4690	7198.411054717474	7
0	4693	7200.367800301998	6
0	4695	7204.020054975758	7
0	4698	7205.309982380426	6
0	4700	7205.532023877848	5
0	4702	7205.810783376174	6
0	4705	7209.344795003371	7
0	4708	7213.264520873201	8
0	4710	7216.605742896223	7
0	4713	7217.646963438105	8
0	4715	7218.026055431245	9
0	4717	7223.110458360472	8
0	4720	7229.972744113819	9
0	4722	7233.993394327104	8
0	4725	7235.450308261994	7
0	4728	7243.95477486146	6
0	4730	7254.001393255778	5
0	4732	7258.073746382127	6
0	4735	7260.020313876562	5
0	4737	7260.304382642373	6
0	4740	7264.816181257181	7
0	4743	7268.669228059433	6
0	4745	7269.514865493417	7
0	4748	7272.62397888187	8
0	4750	7280.316201391191	7
0	4753	7282.113090551619	8
0	4755	7286.030886664077	9
0	4757	7288.793345055581	8
0	4760	7291.189618118614	9
0	4762	7295.328481946985	10
0	4764	7295.530482882235	9
0	4767	7299.87886485644	8
0	4770	7301.143531783116	7
0	4773	7301.657639262682	6
0	4775	7303.122058116508	5
0	4777	7305.971378818961	6
0	4780	7308.492951424176	7
0	4783	7310.042612205321	8
0	4785	7313.521753064666	7
0	4788	7318.863229558149	6
0	4790	7321.382017812053	5
0	4792	7326.221016356425	6
0	4795	7326.74607351983	7
0	4798	7328.079927218486	8
0	4800	7330.81700031368	7
0	4803	7331.028916235898	6
0	4805	7334.913237321058	7
0	4808	7335.927333529804	6
0	4810	7339.174668864728	5
0	4812	7342.498668327812	6
0	4815	7344.552919416637	5
0	4817	7353.998471174842	6
0	4820	7360.325619032569	5
0	4822	7365.291651948792	4
0	4824	7368.557425952215	5
0	4827	7371.723539047657	4
0	4829	7371.740009194228	5
0	4832	7372.0954689592	6
0	4835	7372.337377666937	5
0	4837	7376.375344768699	4
0	4839	7377.851909238275	5
0	4842	7378.184184502423	4
0	4844	7378.781861299532	3
0	4846	7379.300093292205	2
0	4848	7398.771094908952	1
0	4850	7409.71940299956	2
0	4853	7411.251952275882	3
0	4856	7411.408291067963	4
0	4859	7412.087296789262	3
0	4861	7425.654309091147	4
0	4864	7432.241888418884	3
0	4866	7434.024729931432	2
0	4868	7446.177138052644	1
0	4870	7452.729140348366	2
0	4873	7460.633616930795	3
0	4876	7469.731613058095	2
0	4878	7474.881048639829	1
0	4880	7481.030765131211	2
0	4883	7486.88859817464	1
0	4885	7501.39567393268	2
0	4888	7502.626838581078	3
0	4891	7507.717576176746	2
0	4893	7511.960515284849	3
0	4896	7519.29872570982	4
0	4899	7519.924935984542	5
0	4902	7523.530060633242	4
0	4904	7527.593292287015	3
0	4906	7529.211605913273	2
0	4908	7542.488724598462	3
0	4911	7550.740279888884	4
0	4914	7550.862100789327	5
0	4917	7551.551225496361	6
0	4920	7554.298264438771	5
0	4922	7557.877855129442	6
0	4925	7558.255635814549	7
0	4928	7561.271679435182	8
0	4930	7566.079884005087	7
0	4933	7572.254135441669	8
0	4935	7576.080437955853	7
0	4938	7576.447347941321	8
0	4940	7579.344720401986	9
0	4942	7580.160083804576	10
0	4944	7586.711967789066	11
0	4946	7589.696064264113	12
0	4948	7593.653831448823	11
0	4951	7593.665059634364	12
0	4953	7600.622249759372	11
0	4956	7601.255343294442	10
0	4959	7601.308159821577	9
0	4962	7603.700810507915	10
0	4964	7606.602124182346	9
0	4967	7615.109789555572	8
0	4970	7625.228696067757	7
0	4973	7645.162441581252	6
0	4975	7647.782697858751	5
0	4977	7648.520817929477	4
0	4979	7657.275822918582	5
0	4982	7667.29352784727	6
0	4985	7672.335230687375	7
0	4988	7677.097040410927	6
0	4990	7680.973039071596	5
0	4992	7682.314477673032	4
0	4994	7683.763243964351	3
0	4996	7686.073035999152	4
0	4999	7689.792619325551	3
0	5001	7715.272936679076	4
0	5004	7716.811712245771	3
0	5006	7719.092422935801	4
0	5009	7719.175429028893	5
0	5012	7736.54778722092	6
0	5015	7736.826047360299	7
0	5018	7737.069412142211	6
0	5020	7739.495650439157	5
0	5022	7748.199215778442	4
0	5024	7752.756590713195	5
0	5027	7753.471370149629	4
0	5029	7755.16332316637	3
0	5031	7757.357418170094	2
0	5033	7760.206514776676	3
0	5036	7767.142936839193	2
0	5038	7768.133983495665	3
0	5041	7771.637679898176	4
0	5044	7779.549017712804	5
0	5047	7780.604140363421	4
0	5049	7788.014476719928	3
0	5051	7790.782747833944	2
0	5053	7794.04654047871	3
0	5056	7800.17310084689	4
0	5059	7801.04479435549	3
0	5061	7802.144570294322	4
0	5064	7809.993720660851	3
0	5066	7811.223718303985	2
0	5068	7813.762680758782	3
0	5071	7815.673697482688	4
0	5074	7820.595164031658	5
0	5077	7821.382551914772	6
0	5080	7824.243582735764	7
0	5083	7829.759702049519	8
0	5085	7833.609836868645	9
0	5087	7834.743990300535	8
0	5090	7837.003808616661	7
0	5093	7844.368466799727	8
0	5095	7846.656537526555	9
0	5097	7851.330710083595	8
0	5100	7851.928747877822	9
0	5102	7852.531994416114	8
0	5105	7853.31364198669	9
0	5107	7853.612675671999	10
0	5109	7860.33179988156	11
0	5111	7860.730005921043	12
0	5113	7862.971863489669	13
0	5115	7866.192225483392	12
0	5118	7867.470731565243	11
0	5121	7871.797756592261	10
0	5124	7872.14393354471	11
0	5126	7878.457623657456	12
0	5128	7881.851427696569	11
0	5131	7886.083147135649	10
0	5134	7886.872484053873	11
0	5136	7891.932062982272	10
0	5139	7892.049948134203	9
0	5142	7892.875326507283	10
0	5144	7894.189500929817	9
0	5147	7895.026552174478	10
0	5149	7902.133535272012	9
0	5152	7904.627832813994	8
0	5155	7906.494917023606	7
0	5158	7910.285768502969	6
0	5160	7918.929340187728	5
0	5162	7920.053046344568	6
0	5165	7922.973302219472	7
0	5168	7926.566462627075	6
0	5170	7928.87968418995	5
0	5172	7933.27669650469	4
0	5174	7935.757198787829	5
0	5177	7945.210366999546	6
0	5180	7947.330446560986	7
0	5183	7951.256664375484	8
0	5185	7952.739388351916	9
0	5187	7958.111831171077	8
0	5190	7959.04939596943	9
0	5192	7962.257871618818	8
0	5195	7963.709332420121	7
0	5198	7963.968936186677	6
0	5200	7965.214289889343	7
0	5203	7970.345011908939	6
0	5205	7979.249034206443	5
0	5207	7980.706983892763	4
0	5209	7999.601543730099	3
0	5211	8000.582646761111	2
0	5213	8003.610410486013	3
0	5216	8008.703205975122	2
0	5218	8016.076937515756	3
0	5221	8017.270258567203	2
0	5223	8020.828646850543	3
0	5226	8022.736911320439	2
0	5228	8024.763259355679	1
0	5230	8033.42227965356	0
0	5232	8044.661336382928	1
0	5235	8053.127022111783	2
0	5238	8057.590015746281	1
0	5240	8064.422142731804	2
0	5243	8067.976561664141	3
0	5246	8070.089329471979	4
0	5249	8073.028966260846	5
0	5252	8074.350749435111	4
0	5254	8077.447200797601	3
0	5256	8089.54330332936	4
0	5259	8094.422607799579	3
0	5261	8095.709048193266	2
0	5263	8096.407791576888	1
0	5265	8096.985597310599	2
0	5268	8108.727752627977	3
0	5271	8112.883120145265	4
0	5274	8121.157421209091	3
0	5276	8128.030338894503	2
0	5278	8136.712104024126	3
0	5281	8141.700347954025	4
0	5284	8146.443737846031	5
0	5287	8158.169019297618	4
0	5289	8162.776124104884	5
0	5292	8164.363359931716	4
0	5294	8167.810104523281	3
0	5296	8177.987919301287	4
0	5299	8181.774322932138	5
0	5302	8191.525082077289	6
0	5305	8194.746392282413	5
0	5307	8195.174503240618	4
0	5309	8195.660793185353	3
0	5311	8205.873194395965	2
0	5313	8212.811748255033	3
0	5316	8217.222800049836	2
0	5318	8223.150563802271	3
0	5321	8233.231938032072	2
0	5323	8240.777883695434	3
0	5326	8256.892326628064	2
0	5328	8258.910285993039	3
0	5331	8272.237164629054	2
0	5333	8279.159046051237	3
0	5336	8283.669380729111	4
0	5339	8288.223732604966	3
0	5341	8312.336723198654	2
0	5343	8313.777910379727	1
0	5345	8322.15868693757	2
0	5348	8324.208554103648	1
0	5350	8324.639233877915	2
0	5353	8330.792465083859	3
0	5356	8331.990643221947	2
0	5358	8332.545776083392	3
0	5361	8334.86156459508	4
0	5364	8338.552811631616	5
0	5367	8340.480240940028	4
0	5369	8343.241896410147	5
0	5372	8344.350150289776	6
0	5375	8344.817512780576	7
0	5378	8345.00493744213	8
0	5380	8345.203627786075	9
0	5382	8346.883430658392	10
0	5384	8348.181632575471	11
0	5386	8351.031420031603	10
0	5389	8353.642491127842	9
0	5392	8356.758205939429	8
0	5395	8358.774230169517	7
0	5398	8359.51699985205	6
0	5400	8361.135231619024	7
0	5403	8366.741822754067	8
0	5405	8372.595535581617	7
0	5408	8379.263652132252	6
0	5410	8382.080437787851	7
0	5413	8384.443329661067	8
0	5415	8384.617703815674	7
0	5418	8385.166081294079	8
0	5420	8385.651957358061	9
0	5422	8387.030703459676	8
0	5425	8387.934595561704	9
0	5427	8390.103653245725	8
0	5430	8391.438383715886	9
0	5432	8396.539660824393	10
0	5434	8398.527866898852	11
0	5436	8399.435476160984	10
0	5439	8400.948994274198	9
0	5442	8402.286176923141	8
0	5445	8403.896503062504	7
0	5448	8404.805381882893	8
0	5450	8407.562232170349	7
0	5453	8420.849788391343	6
0	5455	8420.99963515795	7
0	5458	8421.173782996696	8
0	5460	8421.189282928968	7
0	5463	8421.993739942526	8
0	5465	8424.018977281147	9
0	5467	8426.660136616335	8
0	5470	8434.853428322525	7
0	5473	8435.28834204146	8
0	5475	8442.490058846455	9
0	5477	8446.569272163027	8
0	5480	8450.924558876508	9
0	5482	8458.669926760933	8
0	5485	8460.804397350195	9
0	5487	8461.078133773122	8
0	5490	8461.34037863826	9
0	5492	8468.974268107143	10
0	5494	8474.361869031597	11
0	5496	8478.955260093928	12
0	5498	8481.293229423123	11
0	5501	8483.007467591548	10
0	5504	8483.257412890813	9
0	5507	8486.045670483567	8
0	5510	8486.958941248674	7
0	5513	8488.88859612885	6
0	5515	8489.368883500544	7
0	5518	8491.061590594029	8
0	5520	8500.170890376945	7
0	5523	8503.448684618234	8
0	5525	8504.209504523812	9
0	5527	8512.279851580627	8
0	5530	8513.488391808629	7
0	5533	8520.398204846073	8
0	5535	8521.945741518485	9
0	5537	8522.662846802571	8
0	5540	8522.885718670678	9
0	5542	8523.167646870121	10
0	5544	8527.323253217133	9
0	5547	8527.431355245451	10
0	5549	8528.100114422429	9
0	5552	8533.457956352514	10
0	5554	8543.564653924118	11
0	5556	8548.394938394531	12
0	5558	8548.838668699089	11
0	5561	8551.726335597142	12
0	5563	8551.745773787124	11
0	5566	8562.1734075776	10
0	5569	8562.599402255604	9
0	5572	8563.725010387423	8
0	5575	8570.989213514057	7
0	5578	8571.905802789481	6
0	5580	8581.438037119666	7
0	5583	8585.504541370139	6
0	5585	8585.848383044448	5
0	5587	8586.87017790372	6
0	5590	8599.589823498717	5
0	5592	8604.249857538696	4
0	5594	8604.616447944705	5
0	5597	8604.766855846047	4
0	5599	8608.986351610379	3
0	5601	8616.189315619952	4
0	5604	8617.537146091273	5
0	5607	8618.314288581441	4
0	5609	8621.493857037061	3
0	5611	8622.818098051493	4
0	5614	8624.354830164877	5
0	5617	8633.826061515539	4
0	5619	8640.64060493893	5
0	5622	8642.262496593685	6
0	5625	8645.137986033551	5
0	5627	8648.005297371347	4
0	5629	8662.162928109717	3
0	5631	8672.744039483113	4
0	5634	8676.38875760277	5
0	5637	8679.154396565946	6
0	5640	8684.152977680448	5
0	5642	8685.60337858782	4
0	5644	8692.722002263506	3
0	5646	8702.89679210763	2
0	5648	8707.324787529336	1
0	5650	8711.387174048769	2
0	5653	8713.816169045717	3
0	5656	8714.010789989496	2
0	5658	8720.945952766621	3
0	5661	8724.547163910444	4
0	5664	8727.682622593057	3
0	5666	8730.187760421903	2
0	5668	8734.689907217796	1
0	5670	8741.588890682163	2
0	5673	8742.270728351954	1
0	5675	8752.351474008906	2
0	5678	8779.398960465953	3
0	5681	8783.508684592264	4
0	5684	8797.939777407751	3
0	5686	8798.817984151928	2
0	5688	8807.070158848972	1
0	5690	8815.81364296907	2
0	5693	8817.173455573152	3
0	5696	8817.790661637247	2
0	5698	8821.739396698334	1
0	5700	8833.24599002189	2
0	5703	8843.896557758196	3
0	5706	8847.002049231413	4
0	5709	8849.221212847351	5
0	5712	8849.52439960951	6
0	5715	8849.671408947013	5
0	5717	8855.849806483437	4
0	5719	8863.322593120618	3
0	5721	8864.885709156498	4
0	5724	8866.007265515633	3
0	5726	8872.427561691605	2
0	5728	8873.354558853891	3
0	5731	8882.764549831241	2
0	5733	8899.168343235566	3
0	5736	8899.518350266607	2
0	5738	8900.169251673185	3
0	5741	8906.935188344493	2
0	5743	8910.427518263419	1
0	5745	8930.68634965889	2
0	5748	8937.857723690154	3
0	5751	8948.496855426148	2
0	5753	8949.148954627897	3
0	5756	8954.20941790234	4
0	5759	8957.344581058742	3
0	5761	8966.405055661448	4
0	5764	8970.862500705378	3
0	5766	8977.857150924919	2
0	5768	8982.07423969421	3
0	5771	8986.797364478896	2
0	5773	8989.268804887527	1
0	5775	8995.864775462321	2
0	5778	8999.854952040495	3
0	5781	9011.672066893098	4
0	5784	9013.77661812764	5
0	5787	9016.570677055382	4
0	5789	9021.977905734993	3
0	5791	9024.339709132506	4
0	5794	9028.136064701628	5
0	5797	9029.233081340911	4
0	5799	9029.528818519086	5
0	5802	9037.353425758831	6
0	5805	9040.254422742219	5
0	5807	9040.815368367192	4
0	5809	9040.862878236902	5
0	5812	9040.944527755357	4
0	5814	9043.046902318054	3
0	5816	9050.125768241819	4
0	5819	9053.539162617689	5
0	5822	9055.1173509911	4
0	5824	9072.197518848118	3
0	5826	9078.090463537911	2
0	5828	9081.767063320787	3
0	5831	9083.603240270366	4
0	5834	9084.146629040967	3
0	5836	9085.239576262293	4
0	5839	9089.344925362616	5
0	5842	9091.199141814143	4
0	5844	9096.394540828637	5
0	5847	9098.876610819649	6
0	5850	9103.168630538397	5
0	5852	9106.591892868853	4
0	5854	9110.365167751838	3
0	5856	9112.472278931541	4
0	5859	9112.591830178141	3
0	5861	9113.259220842019	2
0	5863	9116.414352811703	3
0	5866	9119.402313168661	4
0	5869	9120.246695448757	5
0	5872	9120.83595906627	6
0	5875	9123.904392244395	7
0	5878	9125.032148456923	6
0	5880	9127.626847526175	5
0	5882	9127.895511803025	4
0	5884	9133.202658299826	5
0	5887	9138.730633881103	6
0	5890	9143.931179461318	7
0	5893	9151.682730595823	6
0	5895	9160.519054633827	7
0	5898	9164.487829748572	8
0	5900	9165.29659777031	7
0	5903	9168.398466648153	6
0	5905	9168.69860206905	7
0	5908	9171.342093288276	6
0	5910	9172.511149589849	5
0	5912	9179.386367823319	4
0	5914	9181.990151734689	5
0	5917	9193.731449436308	4
0	5919	9200.670392015844	5
0	5922	9208.905994207185	4
0	5924	9210.531723582794	3
0	5926	9219.57768773648	2
0	5928	9219.889886075443	3
0	5931	9235.687086677883	4
0	5934	9243.132702926684	3
0	5936	9260.358193376739	4
0	5939	9261.623796612969	5
0	5942	9261.703099794895	4
0	5944	9266.227220895043	5
0	5947	9269.348718417269	4
0	5949	9270.377003725246	5
0	5952	9273.846717666613	4
0	5954	9291.743834672848	3
0	5956	9302.823829460875	4
0	5959	9311.505741185242	3
0	5961	9312.411492694182	2
0	5963	9312.479566906147	3
0	5966	9316.495129117433	4
0	5969	9316.814805620561	5
0	5972	9318.088820147639	6
0	5975	9319.033269651557	7
0	5978	9323.488328425036	6
0	5980	9324.138131271159	5
0	5982	9339.314767279574	6
0	5985	9342.400482403069	5
0	5987	9345.420600339809	6
0	5990	9351.202416414779	7
0	5993	9353.272665150288	8
0	5995	9361.012252500901	7
0	5998	9361.842954014321	6
0	6000	9364.134263801972	5
0	6002	9367.003107014935	4
0	6004	9367.861183402613	5
0	6007	9368.207993452199	6
0	6010	9369.869856244786	5
0	6012	9373.958758873257	6
0	6015	9374.023292352376	7
0	6018	9379.239791540895	6
0	6020	9382.032455928519	7
0	6023	9388.560331659482	6
0	6025	9389.007250984353	7
0	6028	9389.466906517233	8
0	6030	9389.524432526816	7
0	6033	9391.923706125877	8
0	6035	9395.873537105751	9
0	6037	9402.12569698399	10
0	6039	9404.647203616235	9
0	6042	9405.674945003555	8
0	6045	9406.240225032621	9
0	6047	9406.777006489725	10
0	6049	9408.971683641064	9
0	6052	9409.670764775741	8
0	6055	9411.140164049698	7
0	6058	9413.941306120359	6
0	6060	9422.499197335076	5
0	6062	9436.344424174158	4
0	6064	9446.26186189508	3
0	6066	9448.592159546863	4
0	6069	9454.870477569774	3
0	6071	9456.832411594617	2
0	6073	9459.875265214843	1
0	6075	9463.868963805037	2
0	6078	9465.150561210703	3
0	6081	9466.785641933782	2
0	6083	9466.876552744078	3
0	6086	9480.364896806767	4
0	6089	9482.609555226822	3
0	6091	9496.34981586	4
0	6094	9496.491157076652	3
0	6096	9504.613850970331	2
0	6098	9511.244315132876	3
0	6101	9514.298863900541	4
0	6104	9516.517631171643	3
0	6106	9518.387252253869	2
0	6108	9531.73495936912	3
0	6111	9533.481445860603	2
0	6113	9534.473338707119	3
0	6116	9545.065543060968	4
0	6119	9547.690978203086	5
0	6122	9548.672623372121	6
0	6125	9554.735714589973	7
0	6128	9555.140614796582	6
0	6130	9560.549734079806	7
0	6133	9569.740295129598	6
0	6135	9572.328176519464	5
0	6137	9584.591375128796	6
0	6140	9585.768489618493	7
0	6143	9586.326528137403	6
0	6145	9587.882562262701	7
0	6148	9590.79861891615	6
0	6150	9598.388319065557	7
0	6153	9604.228244864793	6
0	6155	9609.546710216159	7
0	6158	9611.673566188171	8
0	6160	9612.003279466728	7
0	6163	9619.622752096575	6
0	6165	9622.925727585772	5
0	6167	9629.65591133971	6
0	6170	9633.389257635241	7
0	6173	9633.427873494244	8
0	6175	9635.236280405407	9
0	6177	9636.96920756875	8
0	6180	9637.476973841845	9
0	6182	9637.548065938487	10
0	6184	9638.781649904315	9
0	6187	9642.792455645565	8
0	6190	9642.855926631222	7
0	6193	9642.984217662018	6
0	6195	9646.787001281439	7
0	6198	9647.515647726029	6
0	6200	9647.6785103294	7
0	6203	9658.09708641937	8
0	6205	9664.336727364495	7
0	6208	9666.772689953076	6
0	6210	9667.625148128565	5
0	6212	9673.599618970997	4
0	6214	9676.650151212204	5
0	6217	9678.630349353796	4
0	6219	9679.112881205551	3
0	6221	9682.987425903355	4
0	6224	9683.83779275981	3
0	6226	9691.407917283644	4
0	6229	9692.882187868737	3
0	6231	9696.160177136914	2
0	6233	9700.816334348185	3
0	6236	9705.900649706369	4
0	6239	9715.452709589989	3
0	6241	9721.751624714702	2
0	6243	9725.843455075889	3
0	6246	9731.814772418522	4
0	6249	9733.598090386877	3
0	6251	9735.726555241906	2
0	6253	9736.605356115857	3
0	6256	9739.147402341232	2
0	6258	9742.567127771564	1
0	6260	9764.861941017466	2
0	6263	9782.691911011911	3
0	6266	9792.381570838267	2
0	6268	9802.998975016133	1
0	6270	9803.82824678691	0
0	6272	9842.534397576547	1
0	6275	9843.474714969106	2
0	6278	9864.472793521461	3
0	6281	9873.585415513121	4
0	6284	9873.597133913831	5
0	6287	9874.751086605921	4
0	6289	9876.312594411901	3
0	6291	9885.194084729789	4
0	6294	9886.616798606069	5
0	6297	9887.8598549701	6
0	6300	9891.685107988202	7
0	6303	9895.605607283306	6
0	6305	9898.474891427657	7
0	6308	9901.852986474076	8
0	6310	9912.037646236944	7
0	6313	9912.333626068719	6
0	6315	9913.843238671159	7
0	6318	9919.139624671381	6
0	6320	9922.234256371411	7
0	6323	9924.055532032415	6
0	6325	9927.115515946891	7
0	6328	9929.94545867174	6
0	6330	9935.07090000556	5
0	6332	9936.43132605405	4
0	6334	9937.820834340992	5
0	6337	9939.151146589285	4
0	6339	9940.703566177147	5
0	6342	9941.983221627347	6
0	6345	9944.583357454295	7
0	6348	9949.521765080636	6
0	6350	9950.561606213906	7
0	6353	9960.890187395229	8
0	6355	9961.705845670388	9
0	6357	9962.219460971453	10
0	6359	9965.184133627656	11
0	6361	9978.046348631212	10
0	6364	9981.205481134323	11
0	6366	9981.322775501325	10
0	6369	9991.401302597329	11
0	6371	9992.290525636665	10
0	6374	9992.9958809624	9
0	6377	9993.360158215599	8
0	6380	9994.709684990385	7
0	6383	9999.565953737359	8
0	6385	10005.076176396224	7
0	6388	10006.879739979811	6
0	6390	10008.831240979935	5
0	6392	10010.197224392664	4
0	6394	10012.303871250387	5
0	6397	10020.744748681196	6
0	6400	10020.917160658289	7
0	6403	10022.938951476734	6
0	6405	10032.85995253484	5
0	6407	10035.011983622047	4
0	6409	10035.883715028327	5
0	6412	10037.341620347512	6
0	6415	10037.401728380423	5
0	6417	10037.653006698316	6
0	6420	10045.895135589129	7
0	6423	10051.943006708885	6
0	6425	10052.952441636037	7
0	6428	10059.534222944749	8
0	6430	10068.364473375767	9
0	6432	10071.281732981318	10
0	6434	10074.278047019087	9
0	6437	10074.99860276914	8
0	6440	10076.200376607378	7
0	6443	10081.91607247757	8
0	6445	10091.831614639755	7
0	6448	10093.79931046435	8
0	6450	10094.923260086371	9
0	6452	10107.211178548138	10
0	6454	10111.391887242491	9
0	6457	10113.576603951926	10
0	6459	10113.948637318982	9
0	6462	10117.248847254093	10
0	6464	10123.117917085917	9
0	6467	10126.018927984044	10
0	6469	10128.189780438163	11
0	6471	10128.909180252567	10
0	6474	10129.549053976728	9
0	6477	10131.568693071688	10
0	6479	10137.366064850722	11
0	6481	10137.463438490274	12
0	6483	10139.252205683076	11
0	6486	10146.757980535937	12
0	6488	10150.439668001808	13
0	6490	10156.085081108096	12
0	6493	10156.379093784031	11
0	6496	10156.916239799403	10
0	6499	10156.982377689216	9
0	6502	10157.770617976236	10
0	6504	10161.398563101043	9
0	6507	10162.522419982189	8
0	6510	10167.177889269733	9
0	6512	10167.324745890277	8
0	6515	10168.980092463399	7
0	6518	10187.343815710007	6
0	6520	10190.191803124636	7
0	6523	10191.561334661881	8
0	6525	10196.210066864207	7
0	6528	10200.238459183139	8
0	6530	10201.177096452447	7
0	6533	10211.479313552869	6
0	6535	10213.44765349858	5
0	6537	10213.956648321555	4
0	6539	10217.491818511322	5
0	6542	10220.357671990252	4
0	6544	10223.978873241571	3
0	6546	10236.559027851241	2
0	6548	10242.575947070457	1
0	6550	10243.410275804912	0
0	6552	10245.109708447141	1
0	6555	10261.850432359246	2
0	6558	10276.639793646784	1
0	6560	10283.901612174059	0
0	6562	10285.510828143696	1
0	6565	10288.497963038864	2
0	6568	10303.757508788627	1
0	6570	10308.661974923984	2
0	6573	10319.140402067981	3
0	6576	10319.317550654092	4
0	6579	10321.230971038414	5
0	6582	10323.973466100437	4
0	6584	10325.30346989091	5
0	6587	10335.301464387675	6
0	6590	10337.779698820434	7
0	6593	10338.577584289798	8
0	6595	10338.641023459712	7
0	6598	10340.561907038728	6
0	6600	10342.936101491789	5
0	6602	10345.467835531002	6
0	6605	10347.584351323672	5
0	6607	10350.029287575532	6
0	6610	10355.277145579886	7
0	6613	10355.884140327275	6
0	6615	10357.808258215647	7
0	6618	10359.990225590841	6
0	6620	10361.59266832867	7
0	6623	10361.684722632023	6
0	6625	10362.367311675384	7
0	6628	10372.978842599492	6
0	6630	10374.303711219338	5
0	6632	10386.612285735776	4
0	6634	10387.80199037596	3
0	6636	10389.459223931298	4
0	6639	10392.782842116364	5
0	6642	10413.766469981774	4
0	6644	10415.691640077944	5
0	6647	10422.484261156528	6
0	6650	10422.773752291487	7
0	6653	10426.233648758022	8
0	6655	10427.817085638133	9
0	6657	10428.642195940129	8
0	6660	10436.236810208546	9
0	6662	10451.417294583706	10
0	6664	10453.021159905291	9
0	6667	10454.016188358915	8
0	6670	10457.716811084638	9
0	6672	10461.409104045807	8
0	6675	10470.939357425291	7
0	6678	10472.863570316155	6
0	6680	10473.981993516778	7
0	6683	10473.996258725241	6
0	6685	10475.999084958496	5
0	6687	10478.453398070744	6
0	6690	10478.95645835058	7
0	6693	10478.982995159863	8
0	6695	10480.017212544419	7
0	6698	10484.557253167944	6
0	6700	10486.766064194383	7
0	6703	10486.77705712934	8
0	6705	10488.158236331993	9
0	6707	10488.536396729391	10
0	6709	10490.220526191963	11
0	6711	10491.856287221505	10
0	6714	10493.477062314793	11
0	6716	10494.364373363543	10
0	6719	10500.578953477811	9
0	6722	10505.134713068394	10
0	6724	10507.822823360575	11
0	6726	10508.21616774219	12
0	6728	10513.266691416352	11
0	6731	10518.046694631928	12
0	6733	10519.010535368093	13
0	6735	10519.04164943687	14
0	6737	10519.536417915818	15
0	6739	10520.650377708641	16
0	6741	10526.795291799081	17
0	6743	10530.518122124535	16
0	6746	10531.785226055304	15
0	6749	10531.797913235979	14
0	6752	10537.392125233766	13
0	6755	10538.661025773568	14
0	6757	10539.857101865402	15
0	6759	10542.437249338557	14
0	6762	10544.55400369711	15
0	6764	10546.125414834369	14
0	6767	10550.267850851068	13
0	6770	10551.373572762046	12
0	6773	10551.752789078164	11
0	6776	10552.410659199769	10
0	6779	10553.177980654385	9
0	6782	10557.585918357607	10
0	6784	10566.198996192498	11
0	6786	10572.215350598877	10
0	6789	10572.526251897927	11
0	6791	10574.654816731777	12
0	6793	10575.308655426838	11
0	6796	10580.813513984622	10
0	6799	10582.313530818761	9
0	6802	10588.078293609125	8
0	6805	10588.554673542711	9
0	6807	10588.894240319873	8
0	6810	10590.745172212765	9
0	6812	10592.749844038954	8
0	6815	10594.760672137343	9
0	6817	10605.740063834064	8
0	6820	10617.446582466287	7
0	6823	10621.498203501239	6
0	6825	10621.990381517946	5
0	6827	10622.049936891009	6
0	6830	10624.662727549569	7
0	6833	10632.702862150397	8
0	6835	10635.007387278407	7
0	6838	10635.736034182432	8
0	6840	10636.496001091869	7
0	6843	10642.567169765283	6
0	6845	10647.038196543975	7
0	6848	10648.779892260342	8
0	6850	10668.139757632625	9
0	6852	10668.305390525467	8
0	6855	10669.037558493031	9
0	6857	10671.411395321647	8
0	6860	10674.330179760654	7
0	6863	10675.423177279452	8
0	6865	10682.034926050328	9
0	6867	10683.274567081629	10
0	6869	10687.388729297704	11
0	6871	10687.516370978395	10
0	6874	10693.991451889982	11
0	6876	10696.260140677514	12
0	6878	10698.72694398987	13
0	6880	10701.658708134129	12
0	6883	10703.784925329677	13
0	6885	10703.945541115144	12
0	6888	10710.236245035067	11
0	6891	10710.736198311156	10
0	6894	10713.784651572961	9
0	6897	10715.355223471824	8
0	6900	10718.386669884195	9
0	6902	10719.307132957197	8
0	6905	10726.562100253696	7
0	6908	10726.781030199884	8
0	6910	10733.335382581794	7
0	6913	10735.08054170808	6
0	6915	10737.042702647164	5
0	6917	10743.576127551345	4
0	6919	10751.658105585482	3
0	6921	10755.817983948321	2
0	6923	10757.293243927174	1
0	6925	10759.563215809067	2
0	6928	10760.687002657722	3
0	6931	10769.651082996614	4
0	6934	10770.348726512255	3
0	6936	10783.159693682925	4
0	6939	10788.989309928441	3
0	6941	10791.587238090722	4
0	6944	10791.861935902639	5
0	6947	10797.138741277334	6
0	6950	10802.308396931272	5
0	6952	10810.26797582174	4
0	6954	10811.202715669747	3
0	6956	10819.366205816967	4
0	6959	10820.560891356822	5
0	6962	10823.593970437972	4
0	6964	10825.366730382489	5
0	6967	10829.591695461947	4
0	6969	10830.01055233873	3
0	6971	10839.808149147305	4
0	6974	10843.942317783177	3
0	6976	10847.417164391702	2
0	6978	10852.256286738743	3
0	6981	10863.727792035913	4
0	6984	10868.637934705115	5
0	6987	10871.742829987536	4
0	6989	10873.995550678489	3
0	6991	10883.807362663904	2
0	6993	10885.348945171576	3
0	6996	10889.165341525547	4
0	6999	10892.820357982986	3
0	7001	10902.340453630039	4
0	7004	10903.603675718977	3
0	7006	10905.479441520213	4
0	7009	10910.430408869301	3
0	7011	10913.878408992567	4
0	7014	10914.073057953523	5
0	7017	10914.39291535102	4
0	7019	10920.389225530625	5
0	7022	10928.463364685724	6
0	7025	10929.220549849376	7
0	7028	10940.649918656702	8
0	7030	10950.224888291177	7
0	7033	10953.427634020332	6
0	7035	10955.232653753135	7
0	7038	10956.430917972967	6
0	7040	10956.505817763179	7
0	7043	10959.414077806443	6
0	7045	10960.629758198235	7
0	7048	10964.653483950616	6
0	7050	10967.987141131041	7
0	7053	10973.330072002368	6
0	7055	10974.515678061558	5
0	7057	10975.648536763531	4
0	7059	10977.890367704503	3
0	7061	10986.741453855888	4
0	7064	10986.961901597766	5
0	7067	10989.080188107208	4
0	7069	10995.598935173423	3
0	7071	10995.847609553344	4
0	7074	10998.378034107351	3
0	7076	11006.110365632211	4
0	7079	11007.03510262666	5
0	7082	11008.096612958136	4
0	7084	11015.035023879182	3
0	7086	11020.099454103739	2
0	7088	11030.298107821143	3
0	7091	11034.943217075367	4
0	7094	11035.170152984472	5
0	7097	11042.065940667588	4
0	7099	11044.924221627797	3
0	7101	11052.268686646134	4
0	7104	11063.873464033151	3
0	7106	11074.011664249244	4
0	7109	11074.895093856371	5
0	7112	11078.338885048698	4
0	7114	11081.001125758324	3
0	7116	11081.003366087296	4
0	7119	11086.782467531321	5
0	7122	11089.36341114311	4
0	7124	11092.671141079724	5
0	7127	11096.270860184767	6
0	7130	11096.704399527021	5
0	7132	11099.045449562421	6
0	7135	11104.903886844976	5
0	7137	11105.996998667495	4
0	7139	11121.965345277563	5
0	7142	11122.111109888852	4
0	7144	11125.878274474375	3
0	7146	11133.071750907096	2
0	7148	11135.16323078918	3
0	7151	11136.375171276504	4
0	7154	11138.363478425714	5
0	7157	11142.322599036139	4
0	7159	11144.77980244231	3
0	7161	11152.663247763366	2
0	7163	11155.513470428272	3
0	7166	11159.354508662563	4
0	7169	11163.643584757388	5
0	7172	11167.148503488724	4
0	7174	11169.494034082573	5
0	7177	11169.72472550811	4
0	7179	11174.226146519064	5
0	7182	11175.613116076852	4
0	7184	11186.130798593716	3
0	7186	11186.346468974931	2
0	7188	11186.641096396233	3
0	7191	11186.892573774291	2
0	7193	11190.16659712912	3
0	7196	11197.331597173905	2
0	7198	11199.976706609564	3
0	7201	11200.906934536607	2
0	7203	11205.884997486154	3
0	7206	11213.633877752021	4
0	7209	11224.081092558772	5
0	7212	11225.281500767869	6
0	7215	11226.547686143551	5
0	7217	11230.531550977794	4
0	7219	11237.683519176976	5
0	7222	11250.204732289844	6
0	7225	11256.247998206758	7
0	7228	11258.166257311698	6
0	7230	11268.243087525142	7
0	7233	11273.082381300821	6
0	7235	11273.381610897398	7
0	7238	11273.89579649678	6
0	7240	11274.780874945863	5
0	7242	11282.418063017749	6
0	7245	11284.389026553775	5
0	7247	11285.783303495732	4
0	7249	11287.382157974961	5
0	7252	11287.457787831345	4
0	7254	11292.951558397452	5
0	7257	11292.975447146598	6
0	7260	11302.732449329978	5
0	7262	11307.351122191732	6
0	7265	11308.133629427528	5
0	7267	11315.178387494074	6
0	7270	11317.340057479064	5
0	7272	11317.473183867133	6
0	7275	11332.602957036755	7
0	7278	11338.914361215761	6
0	7280	11339.942379238799	5
0	7282	11342.780560866922	6
0	7285	11343.26188591438	5
0	7287	11346.596519558581	6
0	7290	11348.962967454409	5
0	7292	11350.338023934483	6
0	7295	11351.869728665692	7
0	7298	11353.328778908007	8
0	7300	11362.185625756657	9
0	7302	11366.393149898398	8
0	7305	11373.046564084163	7
0	7308	11374.743593770231	6
0	7310	11375.975592797274	5
0	7312	11383.13021229956	6
0	7315	11383.139262163005	5
0	7317	11386.488374430036	4
0	7319	11389.001617485309	3
0	7321	11404.362313447041	4
0	7324	11405.560085111679	5
0	7327	11408.210175206793	6
0	7330	11410.88530364092	5
0	7332	11415.120545387319	4
0	7334	11416.22135520034	5
0	7337	11419.470572971474	4
0	7339	11421.443062582619	5
0	7342	11421.918814329281	6
0	7345	11425.234788953676	7
0	7348	11431.258579592788	6
0	7350	11433.332204674416	5
0	7352	11434.218100972436	4
0	7354	11434.733738213827	3
0	7356	11435.39097540681	4
0	7359	11447.243214462168	3
0	7361	11448.044984437478	2
0	7363	11451.185562880006	3
0	7366	11457.71090803753	4
0	7369	11457.940563084753	5
0	7372	11467.047265177977	6
0	7375	11468.05714026023	5
0	7377	11470.925239072421	4
0	7379	11476.355787184166	5
0	7382	11479.073875220998	6
0	7385	11487.081985201652	5
0	7387	11506.086093713092	6
0	7390	11510.898368263217	7
0	7393	11515.004968877662	8
0	7395	11516.266495474025	7
0	7398	11517.427233534083	6
0	7400	11521.424256052758	7
0	7403	11523.055677250549	8
0	7405	11541.48213786935	9
0	7407	11541.540895204734	8
0	7410	11544.873258127573	9
0	7412	11551.186363923014	10
0	7414	11551.931053573478	9
0	7417	11557.601388949424	8
0	7420	11563.13636996836	7
0	7423	11564.191160088569	8
0	7425	11564.526244453087	9
0	7427	11565.943136988411	8
0	7430	11568.214005650133	7
0	7433	11568.823761388427	8
0	7435	11573.240421750829	9
0	7437	11576.94128431315	8
0	7440	11578.793595501201	7
0	7443	11579.113120616476	8
0	7445	11581.76042258496	9
0	7447	11586.269740712003	10
0	7449	11586.443802362138	9
0	7452	11589.592707104501	8
0	7455	11592.34446107342	7
0	7458	11596.666939648096	6
0	7460	11596.746884075911	7
0	7463	11605.34045235255	8
0	7465	11606.943744022092	9
0	7467	11613.306422427936	8
0	7470	11615.567303149512	7
0	7473	11616.430657693251	8
0	7475	11619.454139954666	7
0	7478	11624.257145800231	8
0	7480	11626.180030768825	9
0	7482	11627.129657707484	8
0	7485	11630.821895354894	9
0	7487	11638.468967676704	8
0	7490	11638.725136672922	9
0	7492	11641.451079042157	8
0	7495	11643.119400228323	9
0	7497	11647.935230808729	8
0	7500	11650.320455314202	9
0	7502	11654.630955571965	10
0	7504	11660.695769920067	9
0	7507	11662.20448770199	8
0	7510	11666.43697066254	9
0	7512	11671.378940538504	8
0	7515	11672.766171258218	7
0	7518	11674.320136001838	6
0	7520	11678.611309993088	5
0	7522	11684.104258750858	6
0	7525	11684.539461503187	5
0	7527	11686.201064703384	4
0	7529	11687.871102701869	5
0	7532	11692.221156124867	4
0	7534	11695.712783079287	3
0	7536	11696.372093441631	4
0	7539	11698.806036395037	5
0	7542	11701.226828380556	4
0	7544	11708.183478771535	5
0	7547	11711.711183631534	4
0	7549	11713.454700161415	3
0	7551	11715.832583245964	4
0	7554	11715.904615313504	5
0	7557	11718.937259563055	4
0	7559	11724.493796015201	3
0	7561	11726.875495691866	4
0	7564	11727.406008311948	5
0	7567	11731.845841256036	6
0	7570	11739.013762689202	7
0	7573	11744.195882056825	8
0	7575	11744.588103357398	9
0	7577	11759.356339567966	8
0	7580	11759.38309960798	7
0	7583	11761.732137547819	6
0	7585	11766.080806232038	5
0	7587	11766.629671413387	4
0	7589	11767.366986698904	3
0	7591	11768.14153583444	4
0	7594	11769.072862336554	3
0	7596	11770.317696176609	2
0	7598	11772.746186253693	3
0	7601	11773.916800912813	2
0	7603	11781.629512836034	3
0	7606	11783.974463571955	2
0	7608	11784.508241384778	3
0	7611	11788.067953711241	4
0	7614	11789.064583363865	3
0	7616	11792.400555328235	4
0	7619	11794.606138049691	3
0	7621	11836.23847855546	2
0	7623	11837.443741192801	3
0	7626	11837.875987743177	4
0	7629	11840.299212992129	3
0	7631	11850.159763278755	4
0	7634	11850.468470995955	3
0	7636	11855.452843486677	4
0	7639	11856.799655487032	5
0	7642	11862.644060631423	6
0	7645	11863.110843814761	7
0	7648	11866.642513779647	6
0	7650	11870.737665974659	5
0	7652	11870.794861274252	4
0	7654	11875.600746521027	3
0	7656	11882.947864656461	4
0	7659	11890.060448443925	5
0	7662	11896.072620958639	6
0	7665	11897.535397497246	7
0	7668	11899.570080120212	6
0	7670	11901.076871340526	5
0	7672	11905.352654787354	6
0	7675	11907.240446709143	7
0	7678	11907.68107272612	6
0	7680	11908.988974296598	7
0	7683	11909.370044031965	8
0	7685	11918.291444718558	9
0	7687	11919.969369355243	10
0	7689	11926.899331367005	9
0	7692	11932.234471581405	8
0	7695	11932.588741953227	9
0	7697	11932.981913998896	8
0	7700	11933.342906680676	7
0	7703	11934.4878786972	8
0	7705	11936.319020173048	7
0	7708	11941.941806937971	8
0	7710	11943.631252779264	7
0	7713	11946.061207822799	8
0	7715	11949.093938290169	7
0	7718	11950.031204464332	6
0	7720	11955.631866508464	5
0	7722	11955.770651305101	6
0	7725	11956.36662539842	5
0	7727	11956.461703943042	6
0	7730	11960.294762242365	5
0	7732	11961.180941620119	6
0	7735	11965.729973919898	7
0	7738	11972.523556905967	6
0	7740	11979.194030162451	5
0	7742	11981.7841905466	4
0	7744	11982.108542157403	5
0	7747	11985.555002623484	6
0	7750	11986.521009290608	7
0	7753	11990.852453133533	6
0	7755	11991.014804456399	7
0	7758	11992.284163787832	6
0	7760	11998.782412934457	7
0	7763	12000.136689433516	8
0	7765	12006.625802654937	7
0	7768	12007.152696537102	6
0	7770	12011.186280400662	5
0	7772	12017.260280920049	6
0	7775	12018.716687955523	5
0	7777	12023.04754884601	4
0	7779	12023.228115764936	5
0	7782	12024.245666111934	4
0	7784	12025.789822252332	5
0	7787	12027.218873211601	4
0	7789	12029.472626488898	3
0	7791	12039.538133908939	4
0	7794	12044.121209728305	3
0	7796	12045.337205147279	2
0	7798	12046.363472881866	3
0	7801	12049.091135284782	2
0	7803	12054.412004277962	3
0	7806	12056.408479597216	2
0	7808	12058.256301058857	1
0	7810	12067.189148501342	2
0	7813	12067.908165906795	3
0	7816	12070.033533011316	2
0	7818	12070.558855387127	3
0	7821	12077.718966004152	2
0	7823	12089.675135984148	1
0	7825	12090.253799990604	2
0	7828	12092.265621092829	1
0	7830	12094.423228192456	2
0	7833	12098.769021023823	3
0	7836	12104.037952920212	2
0	7838	12108.274132977795	3
0	7841	12126.068038421801	2
0	7843	12127.595466011625	1
0	7845	12134.137453241846	2
0	7848	12134.832650162196	3
0	7851	12142.556243961	4
0	7854	12145.602230195144	3
0	7856	12147.328466327383	4
0	7859	12147.369430611902	5
0	7862	12149.947690252245	4
0	7864	12157.5940847695	3
0	7866	12169.514796701616	2
0	7868	12171.42596287241	1
0	7870	12190.05067596129	2
0	7873	12190.410538959352	3
0	7876	12200.437556732336	4
0	7879	12202.408201296358	3
0	7881	12204.955781071195	4
0	7884	12211.974420657668	3
0	7886	12212.416432149607	2
0	7888	12215.080078227018	1
0	7890	12215.682863919056	2
0	7893	12215.855738449961	3
0	7896	12225.66042325939	4
0	7899	12228.268355304076	5
0	7902	12230.718849036043	4
0	7904	12234.195998753079	5
0	7907	12235.423482350347	6
0	7910	12235.766668799152	5
0	7912	12238.690667640995	4
0	7914	12239.871806114366	5
0	7917	12240.0444356503	4
0	7919	12242.3428384362	5
0	7922	12246.127541676214	6
0	7925	12248.351473181076	7
0	7928	12248.938851374269	6
0	7930	12255.971762637337	5
0	7932	12261.54154366625	6
0	7935	12264.792954382569	5
0	7937	12265.112994285431	6
0	7940	12266.216897606449	5
0	7942	12269.834798400865	4
0	7944	12271.41622975052	3
0	7946	12274.081934205246	4
0	7949	12276.288755920258	3
0	7951	12296.240711313903	4
0	7954	12303.246511296666	3
0	7956	12309.852184346613	2
0	7958	12314.82951331465	1
0	7960	12319.30685906495	2
0	7963	12330.088095497702	1
0	7965	12334.663319309787	2
0	7968	12335.246469551934	1
0	7970	12337.117400489524	2
0	7973	12340.04497021671	3
0	7976	12358.507280471377	2
0	7978	12359.628485151779	1
0	7980	12364.717030369216	2
0	7983	12365.822698866428	3
0	7986	12377.872224302701	4
0	7989	12390.690829892022	3
0	7991	12392.600305537198	4
0	7994	12392.836666578414	3
0	7996	12397.055691530904	2
0	7998	12426.139237260268	3
0	8001	12429.103540860973	4
0	8004	12434.906930503045	3
0	8006	12437.624850794926	2
0	8008	12447.877117279493	1
0	8010	12462.044633190397	2
0	8013	12470.718222267567	3
0	8016	12471.312842527154	4
0	8019	12477.818906306212	3
0	8021	12479.255456864551	4
0	8024	12480.230967102451	5
0	8027	12481.908015465904	4
0	8029	12488.210151211352	5
0	8032	12490.560882864406	4
0	8034	12497.550639322383	3
0	8036	12510.760371578895	4
0	8039	12511.257258470262	5
0	8042	12514.829655788866	4
0	8044	12517.372521654962	5
0	8047	12518.199255354016	4
[...]
1	7359	11447.243214462168	0
1	7361	11448.044984437478	0
1	7363	11451.185562880006	0
1	7366	11457.71090803753	0
1	7369	11457.940563084753	0
1	7372	11467.047265177977	0
1	7375	11468.05714026023	0
1	7377	11470.925239072421	0
1	7379	11476.355787184166	0
1	7382	11479.073875220998	0
1	7385	11487.081985201652	0
1	7387	11506.086093713092	0
1	7390	11510.898368263217	0
1	7393	11515.004968877662	1
1	7395	11516.266495474025	0
1	7398	11517.427233534083	0
1	7400	11521.424256052758	0
1	7403	11523.055677250549	1
1	7405	11541.48213786935	2
1	7407	11541.540895204734	1
1	7410	11544.873258127573	2
1	7412	11551.186363923014	3
1	7414	11551.931053573478	2
1	7417	11557.601388949424	1
1	7420	11563.13636996836	0
1	7423	11564.191160088569	1
1	7425	11564.526244453087	2
1	7427	11565.943136988411	1
1	7430	11568.214005650133	0
1	7433	11568.823761388427	1
1	7435	11573.240421750829	2
1	7437	11576.94128431315	1
1	7440	11578.793595501201	0
1	7443	11579.113120616476	1
1	7445	11581.76042258496	2
1	7447	11586.269740712003	3
1	7449	11586.443802362138	2
1	7452	11589.592707104501	1
1	7455	11592.34446107342	0
1	7458	11596.666939648096	0
1	7460	11596.746884075911	0
1	7463	11605.34045235255	1
1	7465	11606.943744022092	2
1	7467	11613.306422427936	1
1	7470	11615.567303149512	0
1	7473	11616.430657693251	1
1	7475	11619.454139954666	0
1	7478	11624.257145800231	1
1	7480	11626.180030768825	2
1	7482	11627.129657707484	1
1	7485	11630.821895354894	2
1	7487	11638.468967676704	1
1	7490	11638.725136672922	2
1	7492	11641.451079042157	1
1	7495	11643.119400228323	2
1	7497	11647.935230808729	1
1	7500	11650.320455314202	2
1	7502	11654.630955571965	3
1	7504	11660.695769920067	2
1	7507	11662.20448770199	1
1	7510	11666.43697066254	2
1	7512	11671.378940538504	1
1	7515	11672.766171258218	0
1	7518	11674.320136001838	0
1	7520	11678.611309993088	0
1	7522	11684.104258750858	0
1	7525	11684.539461503187	0
1	7527	11686.201064703384	0
1	7529	11687.871102701869	0
1	7532	11692.221156124867	0
1	7534	11695.712783079287	0
1	7536	11696.372093441631	0
1	7539	11698.806036395037	0
1	7542	11701.226828380556	0
1	7544	11708.183478771535	0
1	7547	11711.711183631534	0
1	7549	11713.454700161415	0
1	7551	11715.832583245964	0
1	7554	11715.904615313504	0
1	7557	11718.937259563055	0
1	7559	11724.493796015201	0
1	7561	11726.875495691866	0
1	7564	11727.406008311948	0
1	7567	11731.845841256036	0
1	7570	11739.013762689202	0
1	7573	11744.195882056825	1
1	7575	11744.588103357398	2
1	7577	11759.356339567966	1
1	7580	11759.38309960798	0
1	7583	11761.732137547819	0
1	7585	11766.080806232038	0
1	7587	11766.629671413387	0
1	7589	11767.366986698904	0
1	7591	11768.14153583444	0
1	7594	11769.072862336554	0
1	7596	11770.317696176609	0
1	7598	11772.746186253693	0
1	7601	11773.916800912813	0
1	7603	11781.629512836034	0
1	7606	11783.974463571955	0
1	7608	11784.508241384778	0
1	7611	11788.067953711241	0
1	7614	11789.064583363865	0
1	7616	11792.400555328235	0
1	7619	11794.606138049691	0
1	7621	11836.23847855546	0
1	7623	11837.443741192801	0
1	7626	11837.875987743177	0
1	7629	11840.299212992129	0
1	7631	11850.159763278755	0
1	7634	11850.468470995955	0
1	7636	11855.452843486677	0
1	7639	11856.799655487032	0
1	7642	11862.644060631423	0
1	7645	11863.110843814761	0
1	7648	11866.642513779647	0
1	7650	11870.737665974659	0
1	7652	11870.794861274252	0
1	7654	11875.600746521027	0
1	7656	11882.947864656461	0
1	7659	11890.060448443925	0
1	7662	11896.072620958639	0
1	7665	11897.535397497246	0
1	7668	11899.570080120212	0
1	7670	11901.076871340526	0
1	7672	11905.352654787354	0
1	7675	11907.240446709143	0
1	7678	11907.68107272612	0
1	7680	11908.988974296598	0
1	7683	11909.370044031965	1
1	7685	11918.291444718558	2
1	7687	11919.969369355243	3
1	7689	11926.899331367005	2
1	7692	11932.234471581405	1
1	7695	11932.588741953227	2
1	7697	11932.981913998896	1
1	7700	11933.342906680676	0
1	7703	11934.4878786972	1
1	7705	11936.319020173048	0
1	7708	11941.941806937971	1
1	7710	11943.631252779264	0
1	7713	11946.061207822799	1
1	7715	11949.093938290169	0
1	7718	11950.031204464332	0
1	7720	11955.631866508464	0
1	7722	11955.770651305101	0
1	7725	11956.36662539842	0
1	7727	11956.461703943042	0
1	7730	11960.294762242365	0
1	7732	11961.180941620119	0
1	7735	11965.729973919898	0
1	7738	11972.523556905967	0
1	7740	11979.194030162451	0
1	7742	11981.7841905466	0
1	7744	11982.108542157403	0
1	7747	11985.555002623484	0
1	7750	11986.521009290608	0
1	7753	11990.852453133533	0
1	7755	11991.014804456399	0
1	7758	11992.284163787832	0
1	7760	11998.782412934457	0
1	7763	12000.136689433516	1
1	7765	12006.625802654937	0
1	7768	12007.152696537102	0
1	7770	12011.186280400662	0
1	7772	12017.260280920049	0
1	7775	12018.716687955523	0
1	7777	12023.04754884601	0
1	7779	12023.228115764936	0
1	7782	12024.245666111934	0
1	7784	12025.789822252332	0
1	7787	12027.218873211601	0
1	7789	12029.472626488898	0
1	7791	12039.538133908939	0
1	7794	12044.121209728305	0
1	7796	12045.337205147279	0
1	7798	12046.363472881866	0
1	7801	12049.091135284782	0
1	7803	12054.412004277962	0
1	7806	12056.408479597216	0
1	7808	12058.256301058857	0
1	7810	12067.189148501342	0
1	7813	12067.908165906795	0
1	7816	12070.033533011316	0
1	7818	12070.558855387127	0
1	7821	12077.718966004152	0
1	7823	12089.675135984148	0
1	7825	12090.253799990604	0
1	7828	12092.265621092829	0
1	7830	12094.423228192456	0
1	7833	12098.769021023823	0
1	7836	12104.037952920212	0
1	7838	12108.274132977795	0
1	7841	12126.068038421801	0
1	7843	12127.595466011625	0
1	7845	12134.137453241846	0
1	7848	12134.832650162196	0
1	7851	12142.556243961	0
1	7854	12145.602230195144	0
1	7856	12147.328466327383	0
1	7859	12147.369430611902	0
1	7862	12149.947690252245	0
1	7864	12157.5940847695	0
1	7866	12169.514796701616	0
1	7868	12171.42596287241	0
1	7870	12190.05067596129	0
1	7873	12190.410538959352	0
1	7876	12200.437556732336	0
1	7879	12202.408201296358	0
1	7881	12204.955781071195	0
1	7884	12211.974420657668	0
1	7886	12212.416432149607	0
1	7888	12215.080078227018	0
1	7890	12215.682863919056	0
1	7893	12215.855738449961	0
1	7896	12225.66042325939	0
1	7899	12228.268355304076	0
1	7902	12230.718849036043	0
1	7904	12234.195998753079	0
1	7907	12235.423482350347	0
1	7910	12235.766668799152	0
1	7912	12238.690667640995	0
1	7914	12239.871806114366	0
1	7917	12240.0444356503	0
1	7919	12242.3428384362	0
1	7922	12246.127541676214	0
1	7925	12248.351473181076	0
1	7928	12248.938851374269	0
1	7930	12255.971762637337	0
1	7932	12261.54154366625	0
1	7935	12264.792954382569	0
1	7937	12265.112994285431	0
1	7940	12266.216897606449	0
1	7942	12269.834798400865	0
1	7944	12271.41622975052	0
1	7946	12274.081934205246	0
1	7949	12276.288755920258	0
1	7951	12296.240711313903	0
1	7954	12303.246511296666	0
1	7956	12309.852184346613	0
1	7958	12314.82951331465	0
1	7960	12319.30685906495	0
1	7963	12330.088095497702	0
1	7965	12334.663319309787	0
1	7968	12335.246469551934	0
1	7970	12337.117400489524	0
1	7973	12340.04497021671	0
1	7976	12358.507280471377	0
1	7978	12359.628485151779	0
1	7980	12364.717030369216	0
1	7983	12365.822698866428	0
1	7986	12377.872224302701	0
1	7989	12390.690829892022	0
1	7991	12392.600305537198	0
1	7994	12392.836666578414	0
1	7996	12397.055691530904	0
1	7998	12426.139237260268	0
1	8001	12429.103540860973	0
1	8004	12434.906930503045	0
1	8006	12437.624850794926	0
1	8008	12447.877117279493	0
1	8010	12462.044633190397	0
1	8013	12470.718222267567	0
1	8016	12471.312842527154	0
1	8019	12477.818906306212	0
1	8021	12479.255456864551	0
1	8024	12480.230967102451	0
1	8027	12481.908015465904	0
1	8029	12488.210151211352	0
1	8032	12490.560882864406	0
1	8034	12497.550639322383	0
1	8036	12510.760371578895	0
1	8039	12511.257258470262	0
1	8042	12514.829655788866	0
1	8044	12517.372521654962	0
1	8047	12518.199255354016	0
1	8049	12526.85894520195	0
1	8052	12529.173758188861	0
1	8055	12534.502600136852	0
1	8057	12543.787129100385	0
1	8059	12546.935271260355	0
1	8062	12554.289701045646	0
1	8065	12558.345245329496	0
1	8067	12563.893309102255	0
1	8070	12566.060427379765	0
1	8072	12576.162207569749	0
1	8075	12576.980546725537	0
1	8077	12586.119675208791	0
1	8079	12590.473574047141	0
1	8081	12591.909906697575	0
1	8083	12594.894964723013	0
1	8086	12595.784452214633	0
1	8088	12598.238240760893	0
1	8091	12602.45921035079	0
1	8094	12608.642825606465	0
1	8096	12611.654199005778	0
1	8099	12612.924458327214	0
1	8102	12618.907982529627	0
1	8104	12635.63813876001	0
1	8107	12637.767977532587	0
1	8109	12637.93983934986	0
1	8112	12638.919180696491	0
1	8114	12639.459295860295	0
1	8116	12644.789539574716	0
1	8119	12650.041553960895	0
1	8121	12650.19832224609	0
1	8124	12651.045624933803	0
1	8127	12655.877101398965	0
1	8129	12656.282643228696	0
1	8132	12658.898977279398	0
1	8135	12659.069322840267	0
1	8137	12660.395400494181	0
1	8139	12660.808283691858	0
1	8141	12663.706341465057	0
1	8144	12670.039189619053	0
1	8147	12684.829592738508	0
1	8150	12685.550579864799	0
1	8153	12685.927179194411	1
1	8155	12693.048485524817	0
1	8158	12694.125134901269	1
1	8160	12699.153142702413	0
1	8163	12699.863569707341	1
1	8165	12716.785530947331	0
1	8168	12717.865073161122	0
1	8170	12720.261208804821	0
1	8173	12722.654857459305	0
1	8175	12724.918631918691	0
1	8177	12727.737117987121	0
1	8180	12732.221353300728	0
1	8182	12732.881339574464	0
1	8184	12737.238608010812	0
1	8186	12739.491309792778	0
1	8188	12755.864111617099	0
1	8190	12778.040987218486	0
1	8193	12784.05741609517	0
1	8196	12789.560133342792	0
1	8199	12790.098775857117	0
1	8202	12790.937808398703	0
1	8204	12793.740289738262	0
1	8207	12804.873199525023	0
1	8209	12809.935246453921	0
1	8212	12814.418247413939	0
1	8215	12816.219891410732	0
1	8217	12818.589687425345	0
1	8220	12829.990361533439	0
1	8222	12837.238154518047	0
1	8225	12850.499191832643	0
1	8227	12850.551488133725	0
1	8230	12850.62049190711	0
1	8233	12856.529816895387	0
1	8235	12859.525212623985	0
1	8238	12859.794186344821	1
1	8240	12860.66779640429	2
1	8242	12865.618566317573	3
1	8244	12869.521180729576	2
1	8247	12870.967193775924	1
1	8250	12876.989216239086	2
1	8252	12879.431835525188	1
1	8255	12880.085832092189	0
1	8258	12882.452095806127	1
1	8260	12889.332860011364	2
1	8262	12890.645192055494	3
1	8264	12893.389548377681	2
1	8267	12897.792092273722	1
1	8270	12902.974575986313	0
1	8273	12903.650349970738	1
1	8275	12903.75892558419	0
1	8278	12905.526818750093	1
1	8280	12907.329797677657	2
1	8282	12910.268250208234	1
1	8285	12911.627232152482	0
1	8288	12915.399797893329	1
1	8290	12915.604444702785	0
1	8293	12917.510822092085	1
1	8295	12925.760539673281	0
1	8298	12933.285480729493	0
1	8300	12936.999517219171	0
1	8302	12938.534096732605	0
1	8304	12938.555382239171	0
1	8306	12938.712851965661	0
1	8309	12958.039006830523	0
1	8312	12958.175666953913	0
1	8315	12959.608536212111	0
1	8317	12961.303947102998	0
1	8319	12963.503537878271	0
1	8322	12966.00028602398	0
1	8324	12968.511160917936	0
1	8326	12982.278820291593	0
1	8328	12984.520745176782	0
1	8331	12993.706119922445	0
1	8333	12996.827314658309	0
1	8336	13000.990430634583	0
1	8338	13005.855973933148	0
1	8340	13012.455231564868	0
1	8343	13015.280305615519	0
1	8346	13031.589323639239	0
1	8348	13034.618585956014	0
1	8350	13034.974083827991	0
1	8352	13035.782680912158	0
1	8355	13044.664735134029	0
1	8357	13067.06381190316	0
1	8360	13070.081654915585	0
1	8363	13077.437092202896	0
1	8365	13083.50415545322	0
1	8368	13084.06503545244	0
1	8371	13084.098913829536	0
1	8373	13092.661338997278	0
1	8375	13111.452508634229	0
1	8378	13121.678093109821	0
1	8380	13128.156817699247	0
1	8383	13128.234119282356	0
1	8386	13128.422790227266	0
1	8389	13136.996456163269	0
1	8392	13146.838459385357	0
1	8394	13156.345989329762	0
1	8396	13171.734661532866	0
1	8399	13175.833819905643	0
1	8402	13177.210089651264	0
1	8404	13178.17547022664	0
1	8406	13178.428420690453	0
1	8409	13178.790690785538	0
1	8411	13180.569209783892	0
1	8413	13187.411981875795	0
1	8416	13191.800090809117	0
1	8418	13192.434301026796	0
1	8420	13194.957640755318	0
1	8423	13196.211694323356	0
1	8426	13201.635793851006	0
1	8429	13203.554671841534	0
1	8432	13203.589567671576	0
1	8434	13211.625558525824	0
1	8437	13217.51268222454	0
1	8440	13219.501979846348	0
1	8443	13220.047506534385	1
1	8445	13220.205493021736	2
1	8447	13220.603212632087	1
1	8450	13221.759766034663	2
1	8452	13229.411488100241	1
1	8455	13233.642551064289	2
1	8457	13233.663269541941	3
1	8459	13242.452970147681	4
1	8461	13244.805753803848	3
1	8464	13244.854396132725	2
1	8467	13252.034028859736	1
1	8470	13255.964355973276	2
1	8472	13258.300751244366	1
1	8475	13269.712103230636	2
1	8477	13273.485947525582	3
1	8479	13275.961347681058	2
1	8482	13277.308994935493	1
1	8485	13283.02198811835	2
1	8487	13296.963932028622	1
1	8490	13300.039684168737	0
1	8493	13300.124743581126	1
1	8495	13306.85615754384	0
1	8498	13312.270024153733	0
1	8500	13314.537704397462	0
1	8502	13317.601368455293	0
1	8505	13329.62444159752	0
1	8507	13337.398005757227	0
1	8510	13338.570967284172	0
1	8512	13340.086692864353	0
1	8515	13340.63469766382	0
1	8517	13342.716639058721	0
1	8519	13344.78410545417	0
1	8521	13353.079532993522	0
1	8524	13354.230527949212	0
1	8526	13362.85145603577	0
1	8528	13369.303440505961	0
1	8531	13371.309234922247	0
1	8533	13373.47482447569	0
1	8535	13388.277433249282	0
1	8538	13391.035372525019	0
1	8541	13402.490655975442	0
1	8544	13408.092284666605	0
1	8547	13408.139943840788	0
1	8550	13408.565095551489	0
1	8552	13413.782619910739	0
1	8555	13416.536562833756	0
1	8558	13419.045266549986	0
1	8560	13422.282221338569	0
1	8562	13429.442445156115	0
1	8565	13429.576843084289	0
1	8568	13429.640823456915	0
1	8570	13434.52451281462	0
1	8573	13434.970099386507	1
1	8575	13439.469847795179	0
1	8578	13439.642338096661	1
1	8580	13439.844704325153	0
1	8583	13443.422901170973	0
1	8585	13444.58152861131	0
1	8588	13448.958192038389	1
1	8590	13452.815597227942	0
1	8593	13453.22037986652	1
1	8595	13454.510454874733	0
1	8598	13455.204152952959	0
1	8600	13455.38660871223	0
1	8602	13455.441272154053	0
1	8604	13473.48628060689	0
1	8606	13473.726459478545	0
1	8608	13475.72029953926	0
1	8610	13489.440025465309	0
1	8613	13498.757003887264	0
1	8616	13500.72159410758	0
1	8619	13501.90134435751	0
1	8622	13504.510663209592	0
1	8624	13509.450244284163	0
1	8627	13511.857632468876	0
1	8630	13512.079371304476	0
1	8632	13512.688289831806	0
1	8635	13513.849248691229	0
1	8637	13516.278259607003	0
1	8639	13519.508311861906	0
1	8642	13523.645572822509	0
1	8644	13528.232205462695	0
1	8647	13537.081191814148	0
1	8650	13542.415631791882	0
1	8652	13545.006061365164	0
1	8655	13548.268211911329	0
1	8657	13553.088992039037	0
1	8660	13556.290601756292	0
1	8662	13562.463183264144	0
1	8664	13583.115845826404	0
1	8667	13590.28433078219	0
1	8670	13599.281251460884	0
1	8673	13599.691284437765	0
1	8675	13603.863674169553	0
1	8677	13608.40166786443	0
1	8679	13611.736361664825	0
1	8682	13618.670989274988	0
1	8684	13620.499412642289	0
1	8687	13622.818443305861	0
1	8689	13623.162822225828	0
1	8692	13623.986121791834	0
1	8695	13625.850910215598	0
1	8697	13632.491750717321	0
1	8700	13649.778443682013	0
1	8702	13652.869592077499	0
1	8704	13655.605691348576	0
1	8707	13658.579902162239	0
1	8709	13659.485955843536	0
1	8712	13668.257278279705	0
1	8715	13673.675758501474	0
1	8717	13677.084085497975	0
1	8720	13683.21979119587	0
1	8723	13686.633915690524	1
1	8725	13686.750892125827	0
1	8728	13689.450257045362	1
1	8730	13693.444012638134	0
1	8733	13696.63591967343	0
1	8735	13698.671164694371	0
1	8738	13701.987784263904	0
1	8740	13705.734813866422	0
1	8742	13706.384729928243	0
1	8745	13707.268148589779	0
1	8748	13708.391309024797	0
1	8750	13712.458845339283	0
1	8753	13713.668790781318	0
1	8755	13721.374173787882	0
1	8758	13728.471948844204	0
1	8760	13735.225434377134	0
1	8763	13741.226124213035	1
1	8765	13744.516320679208	0
1	8768	13745.963267701777	1
1	8770	13749.955268830105	2
1	8772	13754.639045457166	1
1	8775	13762.295505703064	0
1	8778	13762.933449159573	0
1	8780	13775.668302820608	0
1	8782	13778.47878881409	0
1	8785	13780.836456433291	0
1	8788	13787.081509836856	0
1	8790	13791.656550144489	0
1	8792	13800.515966893523	0
1	8794	13803.22412447643	0
1	8797	13817.213136818277	0
1	8799	13826.114964377347	0
1	8801	13834.309320661477	0
1	8803	13843.250070969715	0
1	8806	13850.417591904982	0
1	8808	13850.926673539379	0
1	8811	13852.149480801764	0
1	8813	13852.339087262426	0
1	8815	13872.298722948912	0
1	8818	13874.412533397893	0
1	8820	13878.026988732762	0
1	8823	13884.148694086172	0
1	8825	13893.599533252531	0
1	8828	13893.787614968549	0
1	8831	13900.018966255747	0
1	8834	13906.827443665911	0
1	8837	13917.583314446294	0
1	8839	13927.270089687168	0
1	8841	13929.213268050668	0
1	8844	13930.505469077523	0
1	8846	13935.835447447533	0
1	8848	13946.933981256181	0
1	8851	13953.273571499946	0
1	8854	13956.141729778901	0
1	8856	13962.411435373138	0
1	8859	13964.882657878568	0
1	8862	13968.221922523212	0
1	8865	13968.703616774701	0
1	8867	13969.324935568763	0
1	8869	13975.126197531901	0
1	8871	13984.258655919119	0
1	8873	13986.025475845902	0
1	8876	13993.983977726884	0
1	8878	13996.991179857644	0
1	8881	14001.231454177825	0
1	8884	14001.779732902609	0
1	8886	14005.224212233885	0
1	8888	14005.304082340815	0
1	8891	14005.94406075491	0
1	8894	14012.667461770572	0
1	8897	14014.557813463561	0
1	8899	14015.791581694714	0
1	8902	14033.434111472245	0
1	8904	14036.436946679288	0
1	8906	14037.37018961753	0
1	8909	14041.789310378235	0
1	8912	14042.849517745343	0
1	8915	14042.869576911866	0
1	8918	14043.207599909063	0
1	8920	14043.787882761292	0
1	8923	14045.241300806502	1
1	8925	14049.879105910183	0
1	8928	14052.059358402998	0
1	8930	14059.300469541638	0
1	8933	14059.802230271874	1
1	8935	14062.695476950917	0
1	8938	14070.324330538798	0
1	8940	14071.816004133048	0
1	8942	14076.797358910515	0
1	8945	14082.637818508381	0
1	8948	14085.968370594066	1
1	8950	14092.959886322197	2
1	8952	14094.28892180372	1
1	8955	14100.248540900748	0
1	8958	14101.194943938003	1
1	8960	14101.550113104979	2
1	8962	14109.689621999723	1
1	8965	14111.525825660522	2
1	8967	14112.606899655138	3
1	8969	14113.080451939428	4
1	8971	14123.715345938949	5
1	8973	14124.614491651197	6
1	8975	14125.530175524042	5
1	8978	14131.115423002089	6
1	8980	14131.996836121108	5
1	8983	14133.038775021701	6
1	8985	14137.129726736173	7
1	8987	14141.899898675482	6
1	8990	14143.450653577898	5
1	8993	14144.992002776602	4
1	8996	14146.284937083177	3
1	8999	14150.574754044691	2
1	9002	14151.654810988819	3
1	9004	14151.771576177744	2
1	9007	14151.886473379642	1
1	9010	14155.360649098915	0
1	9013	14158.795425643104	0
1	9015	14161.851256448893	0
1	9017	14165.047405760376	0
1	9020	14167.687650635958	0
1	9022	14171.110492107818	0
1	9024	14172.357404006029	0
1	9027	14175.732333514424	0
1	9030	14176.088514881839	0
1	9033	14176.474995413958	0
1	9035	14179.209058929985	0
1	9038	14179.922182057612	0
1	9040	14181.366316911191	0
1	9042	14184.032157967325	0
1	9044	14185.478044930228	0
1	9046	14200.847984816862	0
1	9048	14213.703021750214	0
1	9051	14217.307045770104	0
1	9054	14229.930828376295	0
1	9057	14230.077473319377	0
1	9059	14235.809878209326	0
1	9061	14243.977792407907	0
1	9064	14244.510216860464	0
1	9067	14245.160531100879	0
1	9070	14252.342250671619	0
1	9072	14252.880023033484	0
1	9075	14255.244231578349	0
1	9078	14256.570991067135	0
1	9080	14259.959116266674	0
1	9083	14260.183760931083	0
1	9085	14260.463802300781	0
1	9087	14260.803088131986	0
1	9089	14263.466569309552	0
1	9091	14267.165352903816	0
1	9094	14272.808975478975	0
1	9097	14275.436606583712	0
1	9100	14280.732328531251	0
1	9103	14282.670815829652	0
1	9105	14283.733593334434	0
1	9108	14285.0672154806	0
1	9110	14288.205074167648	0
1	9112	14289.505731035652	0
1	9114	14292.173476061544	0
1	9116	14301.575223894481	0
1	9119	14301.688316761965	0
1	9122	14306.671842885757	0
1	9124	14306.90500280693	0
1	9126	14331.811427820561	0
1	9129	14357.07624875754	0
1	9131	14360.976669409281	0
1	9134	14361.468173121196	0
1	9136	14368.485550219959	0
1	9139	14376.106497131467	0
1	9141	14381.915884527103	0
1	9143	14382.101217844351	0
1	9145	14388.296168185599	0
1	9147	14394.317215055397	0

