version 2
run POLICY_1-27-20191213-12:40:10-1219
attr configname POLICY_1
attr datetime 20191213-12:40:10
attr experiment POLICY_1
attr inifile omnetpp.ini
attr iterationvars ""
attr iterationvarsf ""
attr measurement ""
attr network Carrefour
attr processid 1219
attr repetition 27
attr replication #27
attr resultdir results
attr runnumber 27
attr seedset 27
param **.policy 1
param **.delta 0s
param **.tillsNumber 7
param **.capacity 0.3
param **.meanInterArrivalTime 8s
param **.meanItemsInACart 12
param **.interArrivalDistribution 0
param **.itemsInCartDistribution 0

vector 0 Carrefour.decider stats_numCustomers:vector ETV
attr "" ""
attr source numCustomers
vector 1 Carrefour.decider stats_numCustomersQueue:vector ETV
attr "" ""
attr source numCustomersQueue
0	720	1202.534629649794	5
0	722	1208.349094896928	4
0	724	1215.18645604713	5
0	727	1219.653951384476	6
0	730	1220.834014559182	5
0	732	1236.732156267925	4
0	734	1237.724664930724	5
0	737	1244.394602482361	4
0	739	1246.63102887239	5
0	742	1247.572298793708	6
0	745	1249.130736007444	7
0	748	1258.039403691704	6
0	750	1266.844973658385	7
0	753	1269.423159595116	6
0	755	1271.738262779967	5
0	757	1274.27677140516	6
0	760	1277.906670520142	7
0	763	1279.143147695639	6
0	765	1281.972150559304	7
0	768	1284.858378926812	8
0	770	1297.246967289412	7
0	773	1298.070632437108	6
0	775	1298.877422559052	7
0	778	1310.190228101973	6
0	780	1312.43818820645	5
0	782	1314.988180176243	6
0	785	1323.948664526799	5
0	787	1324.96015811689	6
0	790	1330.788057600039	7
0	793	1331.092616170619	8
0	795	1334.441641278167	7
0	798	1340.993656554565	6
0	800	1343.968703660129	5
0	802	1345.191734495171	6
0	805	1349.3915332272	7
0	808	1359.860582407102	8
0	810	1361.887827843594	7
0	813	1364.465172092675	6
0	815	1364.498269985738	5
0	817	1364.965177810019	6
0	820	1366.300236532205	5
0	822	1367.350836376472	4
0	824	1377.521544645469	5
0	827	1380.165166262466	6
0	830	1381.262034860784	5
0	832	1381.391443423352	4
0	834	1381.776688500622	5
0	837	1383.57900198088	6
0	840	1384.702539740286	7
0	843	1384.835097467189	6
0	845	1385.799719832643	7
0	848	1395.545513681821	8
0	850	1397.529469943068	9
0	852	1405.276009428162	8
0	855	1412.30966053678	7
0	858	1412.876137081988	6
0	860	1415.486827545963	5
0	862	1419.704592139123	4
0	864	1423.23661616406	5
0	867	1423.253987670248	6
0	870	1423.820665457643	7
0	873	1424.556581841225	6
0	875	1425.635180684641	7
0	878	1425.956233618503	8
0	880	1426.459569642439	7
0	883	1430.228460727765	6
0	885	1435.458063613345	7
0	888	1436.753425247251	6
0	890	1443.922279426216	5
0	892	1451.98923905804	6
0	895	1459.060065498989	7
0	898	1460.158567892572	6
0	900	1464.612010781867	5
0	902	1474.195059313321	6
0	905	1478.075803522395	5
0	907	1481.823302917935	4
0	909	1482.042387744271	3
0	911	1488.130083368726	2
0	913	1488.269102166336	1
0	915	1512.255544308065	2
0	918	1525.327961817209	3
0	921	1527.818424131111	4
0	924	1534.197255355204	5
0	927	1538.191103810922	6
0	930	1539.031399682318	5
0	932	1540.217208272489	6
0	935	1551.506618406897	5
0	937	1552.519782034694	6
0	940	1555.578718243008	5
0	942	1559.976731167646	6
0	945	1564.067793323454	5
0	947	1570.037332712243	6
0	950	1573.445334282641	5
0	952	1574.054502382478	6
0	955	1576.172931098597	7
0	958	1582.636832061483	8
0	960	1585.313791907185	9
0	962	1589.384422258504	10
0	964	1591.955732975955	11
0	966	1591.956933634942	10
0	969	1593.693544900524	11
0	971	1594.81334660883	12
0	973	1596.307530217651	11
0	976	1599.062933718733	10
0	979	1607.10531610731	9
0	982	1608.488924660047	8
0	985	1621.847177856117	7
0	988	1628.989678267982	6
0	990	1630.932110703436	7
0	993	1631.000961168759	6
0	995	1634.420676774382	5
0	997	1637.168168087078	6
0	1000	1642.150365552683	7
0	1003	1644.178208536107	6
0	1005	1657.029820556738	5
0	1007	1662.812214734103	4
0	1009	1667.715007162064	5
0	1012	1670.711949296829	4
0	1014	1675.043258264032	5
0	1017	1676.514234704531	4
0	1019	1680.732287502885	5
0	1022	1681.302890563587	4
0	1024	1685.155623007139	5
0	1027	1685.92632087913	6
0	1030	1701.992688547411	5
0	1032	1702.055473974956	4
0	1034	1703.912131306811	5
0	1037	1706.736897508893	4
0	1039	1712.488812868112	5
0	1042	1718.317056326217	6
0	1045	1723.943281276774	7
0	1048	1727.016415310124	6
0	1050	1729.424869274093	7
0	1053	1732.745365930338	8
0	1055	1733.200633175934	7
0	1058	1738.46263468609	8
0	1060	1741.104053567185	7
0	1063	1741.418092377909	6
0	1065	1742.954714091941	5
0	1067	1746.148846067265	6
0	1070	1748.666557031599	7
0	1073	1749.229172487502	6
0	1075	1765.357667116717	7
0	1078	1766.402425377807	6
0	1080	1768.052481225748	7
0	1083	1772.935367303443	6
0	1085	1778.658720191514	5
0	1087	1782.027008856967	6
0	1090	1795.167664260867	5
0	1092	1796.25244950886	4
0	1094	1801.518449406387	3
0	1096	1804.546436815687	4
0	1099	1806.530247998175	5
0	1102	1823.243082627263	4
0	1104	1827.705292394778	5
0	1107	1829.748796234897	6
0	1110	1831.932727450855	5
0	1112	1843.804576930778	4
0	1114	1844.622728312752	5
0	1117	1852.199226494668	6
0	1120	1854.382025731605	7
0	1123	1862.314002878011	8
0	1125	1862.87651755446	7
0	1128	1863.117334799276	8
0	1130	1864.335419864304	9
0	1132	1864.894738641889	10
0	1134	1865.335093911862	9
0	1137	1865.821530829962	8
0	1140	1866.182542829682	7
0	1143	1876.096511201085	6
0	1145	1877.406362485257	5
0	1147	1879.678966224403	4
0	1149	1882.415969432651	5
0	1152	1893.951914917	4
0	1154	1901.276442434255	3
0	1156	1902.942243051103	4
0	1159	1911.284410401405	5
0	1162	1919.191473477872	6
0	1165	1921.448444722356	5
0	1167	1922.655999596046	6
0	1170	1925.141988360717	5
0	1172	1925.601013960919	6
0	1175	1926.045346883261	5
0	1177	1932.965501421448	4
0	1179	1939.392779343515	3
0	1181	1941.90888343066	2
0	1183	1942.658024505998	3
0	1186	1943.592792578863	4
0	1189	1944.222796954065	5
0	1192	1946.99661491239	6
0	1195	1951.862154215998	7
0	1198	1958.948511066097	6
0	1200	1971.890408349211	7
0	1203	1972.58153068614	6
0	1205	1973.53308494323	5
0	1207	1975.076271318953	4
0	1209	1995.147375897896	3
0	1211	1995.513448200191	2
0	1213	2005.272053167291	3
0	1216	2009.23550483879	4
0	1219	2009.453562790359	3
0	1221	2009.761580458582	4
0	1224	2018.1500843321	5
0	1227	2021.356123564315	6
0	1230	2023.508770978377	7
0	1233	2023.845898699475	6
0	1235	2024.086039107634	5
0	1237	2037.008723515556	4
0	1239	2037.786349513505	3
0	1241	2045.01799089636	2
0	1243	2055.110490900308	3
0	1246	2065.09002417995	4
0	1249	2067.471251339222	5
0	1252	2077.160041822796	6
0	1255	2079.184827239351	5
0	1257	2080.341927699876	4
0	1259	2084.933318768324	5
0	1262	2086.485299711103	6
0	1265	2089.89537601225	5
0	1267	2093.189919691266	4
0	1269	2096.377133015595	5
0	1272	2097.411233650317	6
0	1275	2097.555304704744	7
0	1278	2099.368474244401	8
0	1280	2099.526471701175	9
0	1282	2099.896478477522	8
0	1285	2100.331126539262	9
0	1287	2103.191681190191	10
0	1289	2105.129314032596	11
0	1291	2116.034246452312	10
0	1294	2119.609299924242	11
0	1296	2121.712587226888	10
0	1299	2124.530798494197	9
0	1302	2125.044689918691	10
0	1304	2138.668549982991	9
0	1307	2142.942785027354	8
0	1310	2148.448854088064	9
0	1312	2151.928537148449	8
0	1315	2160.597224819314	9
0	1317	2164.189976918842	8
0	1320	2165.234823156843	7
0	1323	2170.66005426246	6
0	1325	2172.737107954554	5
0	1327	2174.384891247599	4
0	1329	2178.128163839432	5
0	1332	2178.967517595742	6
0	1335	2186.763159968966	5
0	1337	2197.368439004129	6
0	1340	2201.966315749217	7
0	1343	2205.510639165237	6
0	1345	2206.080815969251	7
0	1348	2217.44714572448	8
0	1350	2228.984392888817	7
0	1353	2239.061982142612	6
0	1355	2240.26651375557	7
0	1358	2241.288060048458	6
0	1360	2241.389287143054	5
0	1362	2245.177941665807	4
0	1364	2261.0731918435	3
0	1366	2265.354427107101	4
0	1369	2266.653355672769	3
0	1371	2268.322843783488	4
0	1374	2278.55290065785	5
0	1377	2288.844371059549	6
0	1380	2291.629091150893	5
0	1382	2296.761351443129	6
0	1385	2299.07682152406	5
0	1387	2301.549312467201	6
0	1390	2306.507298915647	5
0	1392	2311.638192382747	4
0	1394	2315.655364341385	5
0	1397	2317.945238054542	4
0	1399	2321.517774611502	5
0	1402	2325.619270941371	6
0	1405	2327.755198691711	7
0	1408	2331.208842155715	8
0	1410	2331.638301203542	9
0	1412	2336.790979721509	8
0	1415	2338.526847783665	9
0	1417	2338.784582866349	10
0	1419	2341.310443659674	9
0	1422	2341.612753982016	8
0	1425	2341.918649082041	9
0	1427	2353.439089557761	8
0	1430	2361.469287294583	9
0	1432	2361.893930846404	8
0	1435	2361.942308664408	7
0	1438	2362.280651642491	6
0	1440	2362.489020659034	7
0	1443	2363.48634558801	8
0	1445	2364.23184363216	7
0	1448	2368.135670592661	8
0	1450	2371.208659338838	9
0	1452	2371.242931825447	8
0	1455	2378.339101102687	7
0	1458	2395.524146275747	6
0	1460	2396.565464159156	5
0	1462	2399.163082591176	4
0	1464	2399.958174827046	5
0	1467	2401.887856487455	4
0	1469	2402.822981689935	3
0	1471	2405.159181198558	4
0	1474	2405.602361452013	3
0	1476	2407.027119819111	2
0	1478	2408.224912401272	3
0	1481	2408.462237521798	4
0	1484	2408.900100532765	5
0	1487	2409.008112433411	4
0	1489	2409.93352249082	5
0	1492	2421.162173696146	4
0	1494	2421.622937407964	3
0	1496	2425.747068560089	2
0	1498	2429.496681021111	1
0	1500	2438.006357748446	2
0	1503	2461.19298215796	3
0	1506	2463.079401567418	2
0	1508	2485.482126275334	3
0	1511	2493.981705994894	4
0	1514	2505.694474536558	3
0	1516	2514.048218567308	2
0	1518	2521.757085348054	3
0	1521	2522.185549215187	2
0	1523	2522.799895401498	1
0	1525	2533.584353067483	2
0	1528	2534.287303403063	3
0	1531	2542.757319947988	2
0	1533	2543.162631573642	3
0	1536	2556.112593544285	2
0	1538	2573.186976711471	3
0	1541	2575.788546775829	4
0	1544	2578.778264374079	5
0	1547	2581.816915413108	6
0	1550	2581.865895670046	5
0	1552	2582.839712271903	4
0	1554	2589.968640527909	3
0	1556	2592.556851582264	4
0	1559	2597.008813321046	5
0	1562	2603.508966215225	4
0	1564	2605.649626319566	5
0	1567	2609.210568510822	4
0	1569	2615.08227227075	3
0	1571	2640.268057600137	2
0	1573	2641.575081199956	3
0	1576	2644.981499499074	4
0	1579	2647.952483203954	3
0	1581	2649.935434241085	4
0	1584	2650.764740546156	3
0	1586	2651.971736600236	2
0	1588	2662.587036310202	3
0	1591	2665.623759661846	4
0	1594	2672.853087945413	3
0	1596	2674.934217035607	4
0	1599	2687.876936430317	5
0	1602	2693.179114640135	4
0	1604	2699.792097808733	3
0	1606	2706.543498334606	2
0	1608	2723.276816799104	3
0	1611	2724.806215859694	4
0	1614	2732.247436666239	3
0	1616	2738.718470182213	4
0	1619	2740.809016349933	3
0	1621	2746.284472865501	4
0	1624	2757.75868118095	5
0	1627	2759.050749577687	4
0	1629	2766.464662316119	3
0	1631	2768.819937644164	4
0	1634	2768.952710574546	3
0	1636	2770.704224129848	2
0	1638	2772.917319469976	3
0	1641	2775.197814650672	2
0	1643	2777.743807373968	3
0	1646	2778.742517026486	2
0	1648	2781.220191967087	3
0	1651	2784.680133882609	2
0	1653	2785.538451086534	1
0	1655	2790.341540259366	2
0	1658	2793.177254202329	1
0	1660	2795.437159686745	2
0	1663	2800.30250826102	1
0	1665	2808.182822780719	2
0	1668	2811.22042118769	1
0	1670	2822.203747708242	2
0	1673	2824.356956291804	3
0	1676	2836.322716718714	2
0	1678	2839.377004223533	3
0	1681	2850.040693582745	2
0	1683	2851.643016837419	3
0	1686	2852.247071633854	2
0	1688	2868.268614613331	3
0	1691	2874.843151201755	4
0	1694	2880.169911012515	3
0	1696	2883.262355605281	4
0	1699	2889.825417113373	5
0	1702	2893.321806309377	4
0	1704	2898.167678912533	3
0	1706	2901.666138751875	4
0	1709	2904.759935200398	3
0	1711	2905.13171256084	4
0	1714	2907.414372432164	3
0	1716	2931.368596688433	4
0	1719	2934.885926420722	3
0	1721	2940.037765239075	2
0	1723	2949.347651820184	3
0	1726	2951.717846602527	4
0	1729	2955.238824035744	5
0	1732	2963.404660775765	4
0	1734	2966.292070253363	5
0	1737	2967.442344442639	6
0	1740	2967.572016060167	7
0	1743	2969.658135010234	8
0	1745	2970.61438666459	9
0	1747	2978.400622476611	8
0	1750	2978.548726463902	9
0	1752	2983.46597898482	10
0	1754	2983.869847924597	9
0	1757	2988.691287717011	10
0	1759	2994.625484921348	9
0	1762	2996.599341282903	10
0	1764	2998.262278268603	9
0	1767	2999.521199444352	8
0	1770	3004.414862924384	7
0	1773	3005.263952687032	8
0	1775	3005.265931081634	7
0	1778	3010.320490341595	6
0	1780	3010.623171994959	7
0	1783	3012.088189258201	6
0	1785	3013.469330737067	7
0	1788	3016.54746301474	6
0	1790	3018.997431205348	7
0	1793	3020.406038193723	6
0	1795	3024.37196069761	7
0	1798	3024.883506632326	6
0	1800	3033.240663224493	5
0	1802	3034.014507381217	6
0	1805	3043.811797477814	7
0	1808	3045.893552071682	8
0	1810	3045.894779560178	7
0	1813	3047.045992693182	6
0	1815	3047.742807768506	7
0	1818	3047.891878843375	6
0	1820	3050.075156109021	7
0	1823	3051.759218051648	6
0	1825	3053.697912550906	7
0	1828	3062.587445668986	8
0	1830	3068.826955933448	7
0	1833	3073.357416711032	8
0	1835	3080.173101803804	9
0	1837	3090.482099342057	10
0	1839	3091.067456159849	11
0	1841	3092.489502368528	10
0	1844	3095.360278740503	9
0	1847	3096.750919566014	10
0	1849	3104.049199232513	11
0	1851	3106.971277557404	10
0	1854	3111.216661297051	9
0	1857	3117.630773587598	8
0	1860	3118.01982490535	9
0	1862	3120.572251908875	8
0	1865	3120.840911607822	7
0	1868	3129.901741226915	6
0	1870	3130.75170251348	7
0	1873	3131.728367353615	8
0	1875	3132.035877858716	9
0	1877	3133.152298819203	8
0	1880	3136.487472356334	7
0	1883	3139.105402620387	8
0	1885	3140.710567272309	7
0	1888	3140.956408282296	6
0	1890	3143.005698069083	7
0	1893	3143.662890443451	8
0	1895	3144.085476027787	7
0	1898	3152.70163723073	8
0	1900	3153.269095134771	7
0	1903	3161.469815644627	8
0	1905	3161.879348512149	7
0	1908	3162.107592118247	6
0	1910	3165.101639319482	5
0	1912	3166.759909267745	4
0	1914	3169.103555367182	3
0	1916	3170.974582336943	4
0	1919	3178.220740419869	3
0	1921	3178.450889834823	4
0	1924	3181.455649999122	3
0	1926	3183.965030515249	4
0	1929	3187.735080317837	5
0	1932	3191.709148068147	4
0	1934	3202.181199537616	3
0	1936	3204.768336398985	4
0	1939	3209.443229074518	3
0	1941	3210.600485347822	4
0	1944	3212.40455001534	5
0	1947	3215.745377792376	4
0	1949	3216.42274220633	5
0	1952	3218.105333543209	4
0	1954	3227.981529642469	5
0	1957	3229.074797665486	6
0	1960	3230.354717817273	5
0	1962	3238.012237555834	6
0	1965	3241.324499678681	5
0	1967	3243.716758204414	6
0	1970	3247.29710048198	7
0	1973	3248.639539876458	8
0	1975	3251.355850610252	7
0	1978	3253.672865497573	6
0	1980	3255.424584148954	7
0	1983	3257.27045182849	8
0	1985	3258.406547630097	7
0	1988	3258.439509053506	8
0	1990	3258.569247591203	7
0	1993	3260.965250880295	6
0	1995	3262.6474042566	7
0	1998	3263.367160116282	8
0	2000	3263.76314077835	7
0	2003	3268.120163305347	6
0	2005	3272.131950804248	5
0	2007	3272.498187902711	6
0	2010	3274.430409118468	5
0	2012	3276.085422221073	6
0	2015	3283.738765026156	7
0	2018	3285.49727394122	8
0	2020	3290.730791226253	9
0	2022	3292.60498669274	8
0	2025	3295.027928921554	9
0	2027	3296.525958038274	10
0	2029	3297.843779807085	11
0	2031	3299.820936323676	12
0	2033	3301.080215497884	13
0	2035	3302.290226090053	12
0	2038	3303.570727507155	11
0	2041	3306.02177997821	12
0	2043	3310.627395468676	11
0	2046	3311.01331411094	10
0	2049	3312.443424682734	9
0	2052	3312.60911580675	10
0	2054	3313.820319073866	11
0	2056	3317.065812627972	10
0	2059	3318.64114044688	11
0	2061	3324.620618019586	10
0	2064	3330.510824860862	11
0	2066	3338.418126100251	12
0	2068	3338.716797789428	11
0	2071	3339.517948901602	12
0	2073	3341.68965595776	11
0	2076	3342.183839291266	10
0	2079	3345.274551867074	9
0	2082	3347.538552113861	8
0	2085	3349.194143987878	7
0	2088	3352.657309885962	6
0	2090	3359.474262302396	5
0	2092	3364.626037314492	4
0	2094	3366.388941605138	5
0	2097	3372.005068421636	4
0	2099	3376.527414266506	5
0	2102	3378.381839146469	6
0	2105	3380.648777989161	5
0	2107	3387.176460057869	6
0	2110	3388.343229816993	7
0	2113	3395.952491377392	6
0	2115	3397.394463978942	5
0	2117	3398.386476490292	4
0	2119	3406.12366349498	5
0	2122	3410.596420471047	6
0	2125	3412.104874965655	5
0	2127	3420.655095442702	6
0	2130	3423.327269619645	7
0	2133	3424.292349555325	6
0	2135	3426.567296655877	5
0	2137	3432.844561789669	6
0	2140	3433.363051655099	7
0	2143	3434.249193176835	8
0	2145	3437.273016972108	7
0	2148	3441.249818114715	6
0	2150	3444.939388487607	5
0	2152	3444.948178164007	6
0	2155	3445.117569992733	7
0	2158	3448.659397211564	6
0	2160	3448.834835959279	7
0	2163	3457.069419828191	6
0	2165	3460.444888248376	5
0	2167	3461.753926540694	6
0	2170	3462.026186201691	5
0	2172	3462.818805933891	4
0	2174	3466.836669581088	3
0	2176	3489.058514910965	4
0	2179	3491.971612424084	5
0	2182	3494.254508669377	4
0	2184	3503.627705155671	5
0	2187	3503.638288208934	4
0	2189	3514.153514306414	3
0	2191	3522.660177533302	4
0	2194	3523.766115376201	3
0	2196	3530.547719667353	2
0	2198	3536.306731628063	1
0	2200	3537.778443351106	0
0	2202	3551.586323900738	1
0	2205	3559.466482254088	2
0	2208	3566.873538278007	3
0	2211	3574.162973546561	4
0	2214	3574.648756056992	3
0	2216	3577.559340900483	2
0	2218	3577.937377337286	1
0	2220	3584.530230013956	2
0	2223	3587.683075483354	3
0	2226	3589.594872747133	4
0	2229	3589.678452844772	3
0	2231	3596.008081105877	2
0	2233	3598.157579911921	3
0	2236	3602.173000458035	4
0	2239	3606.93714678027	5
0	2242	3612.665481595047	6
0	2245	3619.884555475138	5
0	2247	3622.546472023391	4
0	2249	3624.376446310523	3
0	2251	3630.598781361788	2
0	2253	3630.98407141289	3
0	2256	3638.039522739884	2
0	2258	3642.456087779388	3
0	2261	3655.281387203423	2
0	2263	3666.474653177088	3
0	2266	3667.676103825153	2
0	2268	3684.786268163753	3
0	2271	3685.157932458993	2
0	2273	3685.817409468589	1
0	2275	3690.007486808662	2
0	2278	3694.524487490082	1
0	2280	3696.614885064386	2
0	2283	3700.328460923727	3
0	2286	3708.987860757849	4
0	2289	3710.856514674528	5
0	2292	3718.871618205184	4
0	2294	3719.012861549534	3
0	2296	3719.53323096232	4
0	2299	3725.645534865491	5
0	2302	3734.738508273128	6
0	2305	3735.615566202567	5
0	2307	3748.422036481254	4
0	2309	3756.956856724769	5
0	2312	3761.63871117287	6
0	2315	3762.514840094302	7
0	2318	3764.52512673865	6
0	2320	3764.994532567294	5
0	2322	3765.2926601391	6
0	2325	3765.377165311122	5
0	2327	3765.620636128848	4
0	2329	3766.555178657145	5
0	2332	3768.201329687266	4
0	2334	3772.624220338553	5
0	2337	3780.676550394123	6
0	2340	3783.169659585712	7
0	2343	3787.724331191736	8
0	2345	3788.446312587988	7
0	2348	3790.828043700265	6
0	2350	3791.258866585456	7
0	2353	3796.333631763222	8
0	2355	3796.371602765955	7
0	2358	3800.495481315294	6
0	2360	3800.90056683064	7
0	2363	3801.486798171457	6
0	2365	3804.170511948409	7
0	2368	3804.613472927661	8
0	2370	3814.00229928453	9
0	2372	3814.205924721934	8
0	2375	3819.905730660595	7
0	2378	3820.594322107175	8
0	2380	3822.551883558684	9
0	2382	3823.67281925909	8
0	2385	3826.890059500306	9
0	2387	3827.779665250054	8
0	2390	3828.770026445394	9
0	2392	3830.101947216042	8
0	2395	3831.505024908437	7
0	2398	3836.131298637567	6
0	2400	3836.537087646482	7
0	2403	3839.889528981577	8
0	2405	3842.397673158425	7
0	2408	3844.734207835201	6
0	2410	3845.135801327357	5
0	2412	3846.827522027644	6
0	2415	3848.241869426127	7
0	2418	3855.706429835714	6
0	2420	3868.091209716597	5
0	2422	3870.301691010271	4
0	2424	3875.60257388641	3
0	2426	3879.140315279759	4
0	2429	3880.360845283269	5
0	2432	3886.937816788022	4
0	2434	3887.750561504115	5
0	2437	3895.410810552974	4
0	2439	3897.020572279948	3
0	2441	3897.565968903491	2
0	2443	3902.219431839833	3
0	2446	3909.302038202369	2
0	2448	3910.005496090586	1
0	2450	3922.049343633256	2
0	2453	3925.931291298871	3
0	2456	3926.683072079217	4
0	2459	3933.418610681785	5
0	2462	3935.49370491938	4
0	2464	3937.969573253143	5
0	2467	3938.21152159669	6
0	2470	3941.426570430598	7
0	2473	3951.072375124394	8
0	2475	3951.445270103526	7
0	2478	3955.68803647172	6
0	2480	3957.59173417409	5
0	2482	3960.755933731045	6
0	2485	3963.860876457667	7
0	2488	3967.474715082454	6
0	2490	3980.980178986899	5
0	2492	3984.132049538593	6
0	2495	3986.843477881213	5
0	2497	3992.651820451495	6
0	2500	4000.161308703826	5
0	2502	4001.939463738107	4
0	2504	4009.649200559207	5
0	2507	4012.437620938806	6
0	2510	4017.28620143648	7
0	2513	4017.396274591374	6
0	2515	4018.73933781496	7
0	2518	4024.939022780051	6
0	2520	4025.482299345129	5
0	2522	4027.349873881771	4
0	2524	4029.003488626968	3
0	2526	4030.085812813347	4
0	2529	4036.40752300565	5
0	2532	4036.883835323384	4
0	2534	4037.268614260383	3
0	2536	4043.679877780231	2
0	2538	4044.256110472693	3
0	2541	4046.84670964291	2
0	2543	4049.433150924106	3
0	2546	4053.618532757221	4
0	2549	4054.583498247	5
0	2552	4055.692518626901	4
0	2554	4056.228704944817	3
0	2556	4064.550427372181	4
0	2559	4073.875051914842	5
0	2562	4074.04977445929	6
0	2565	4076.559399317832	5
0	2567	4079.1761797772	6
0	2570	4085.392289655341	5
0	2572	4097.460177997815	6
0	2575	4101.599615898476	7
0	2578	4109.853846817755	8
0	2580	4112.707222362998	9
0	2582	4115.961876600473	10
0	2584	4117.870906797912	11
0	2586	4137.813381896265	10
0	2589	4144.053376899698	9
0	2592	4144.300968234931	8
0	2595	4149.503030674637	7
0	2598	4150.397696360125	6
0	2600	4152.929452488558	5
0	2602	4156.601946877748	6
0	2605	4159.400350673231	7
0	2608	4162.646264852433	6
0	2610	4165.707934045979	5
0	2612	4168.417450922798	6
0	2615	4171.374741229244	5
0	2617	4176.474527874511	6
0	2620	4182.880851504348	5
0	2622	4185.969188634932	6
0	2625	4186.906107314075	5
0	2627	4194.646234445949	6
0	2630	4202.121071585801	5
0	2632	4214.864613921858	4
0	2634	4216.403129654548	5
0	2637	4216.818647372341	6
0	2640	4222.046101138598	7
0	2643	4223.037824705971	8
0	2645	4223.408777702247	9
0	2647	4226.924785502767	10
0	2649	4227.381434357028	11
0	2651	4229.942939804214	10
0	2654	4230.372703753512	9
0	2657	4233.807778737433	10
0	2659	4237.531331651692	11
0	2661	4239.665469760995	10
0	2664	4247.741125706492	11
0	2666	4261.59544180102	10
0	2669	4262.574216003045	9
0	2672	4265.657097284686	10
0	2674	4268.973476310763	11
0	2676	4284.689409782886	10
0	2679	4285.449729169817	9
0	2682	4287.304669468191	8
0	2685	4289.403829249679	7
0	2688	4289.620442257165	6
0	2690	4289.644519410097	5
0	2692	4290.985821079222	6
0	2695	4296.767703694135	7
0	2698	4302.376507075118	6
0	2700	4305.084388451021	7
0	2703	4309.181754652055	6
0	2705	4310.935243959907	5
0	2707	4311.802180026099	6
0	2710	4312.523651675367	7
0	2713	4316.897923476807	6
0	2715	4319.944087265715	5
0	2717	4323.01925321816	4
0	2719	4323.482092785071	3
0	2721	4328.788406319113	2
0	2723	4330.188324353278	3
0	2726	4340.368742371663	4
0	2729	4341.58867626121	5
0	2732	4342.062440038792	4
0	2734	4344.697731474774	3
0	2736	4347.386744065806	4
0	2739	4350.435058148624	3
0	2741	4356.506392698317	4
0	2744	4362.935171854787	5
0	2747	4364.86304738654	4
0	2749	4383.615574432947	5
0	2752	4398.906513148957	4
0	2754	4402.319457334238	5
0	2757	4404.756450909251	4
0	2759	4407.257603947487	3
0	2761	4407.732276818046	4
0	2764	4407.765130280686	5
0	2767	4411.094650288309	6
0	2770	4412.929679099376	5
0	2772	4412.998232614455	4
0	2774	4413.192860241997	3
0	2776	4413.522822316087	4
0	2779	4415.041242484469	5
0	2782	4426.691654304602	4
0	2784	4428.46285703327	5
0	2787	4439.766581959142	4
0	2789	4450.29455389558	5
0	2792	4452.615217927697	6
0	2795	4455.962519476748	7
0	2798	4457.718406152487	8
0	2800	4466.892577879035	9
0	2802	4472.009461071424	8
0	2805	4475.700757517086	7
0	2808	4478.659208188568	6
0	2810	4481.282226304686	5
0	2812	4482.736320696736	4
0	2814	4488.203933517358	3
0	2816	4491.822856143257	4
0	2819	4492.462740542117	3
0	2821	4495.305731976181	2
0	2823	4495.512000969732	3
0	2826	4499.861742168631	2
0	2828	4503.382197629563	3
0	2831	4507.114628563966	4
0	2834	4515.410397172472	3
0	2836	4520.631692834942	4
0	2839	4521.080653455182	5
0	2842	4525.531743200859	4
0	2844	4535.234658374618	5
0	2847	4541.492959644652	4
0	2849	4545.008153012175	3
0	2851	4549.362149884199	4
0	2854	4550.171360636532	5
0	2857	4557.738038992044	4
0	2859	4559.170757700942	3
0	2861	4562.237957002857	4
0	2864	4565.480087674441	3
0	2866	4565.665753265721	4
0	2869	4569.555366981651	5
0	2872	4588.436400609054	6
0	2875	4592.218857496976	7
0	2878	4593.549904226339	8
0	2880	4595.184827785081	7
0	2883	4596.901784340214	6
0	2885	4606.240406832045	7
0	2888	4611.394531613548	8
0	2890	4614.342273953105	7
0	2893	4624.751610746315	8
0	2895	4625.058507405149	9
0	2897	4629.900799377257	10
0	2899	4630.207830201722	9
0	2902	4633.570350362678	10
0	2904	4634.731398719651	9
0	2907	4636.039391643122	8
0	2910	4637.294762443396	7
0	2913	4642.552664913743	6
0	2915	4651.454950636544	5
0	2917	4657.012739790443	4
0	2919	4657.039149807849	5
0	2922	4658.448893071233	6
0	2925	4659.416926711967	5
0	2927	4660.470327260017	4
0	2929	4662.484853412179	5
0	2932	4668.108455676735	4
0	2934	4671.849461180672	5
0	2937	4673.903815591442	6
0	2940	4675.474923388633	5
0	2942	4675.923993375497	6
0	2945	4677.44547716731	7
0	2948	4677.804966191171	8
0	2950	4682.062264463729	9
0	2952	4684.36704713103	8
0	2955	4684.959211271398	7
0	2958	4686.351478919779	6
0	2960	4692.99418084073	5
0	2962	4693.852121029216	4
0	2964	4701.068509037894	5
0	2967	4712.824584964159	4
0	2969	4719.707338281978	5
0	2972	4721.995551445199	6
0	2975	4727.968303685596	5
0	2977	4734.444427998811	4
0	2979	4735.245097463224	5
0	2982	4735.858246675886	4
0	2984	4739.916171824751	5
0	2987	4750.922591202607	6
0	2990	4756.203977731121	5
0	2992	4757.709803334429	4
0	2994	4758.433509289738	3
0	2996	4759.928006264932	4
0	2999	4761.445762398953	5
0	3002	4765.179420190882	6
0	3005	4771.453146995377	5
0	3007	4774.913053038249	6
0	3010	4774.937698149642	7
0	3013	4775.78579819212	8
0	3015	4783.766982004817	7
0	3018	4785.301220437677	6
0	3020	4788.857472773721	5
0	3022	4790.646067213459	4
0	3024	4794.827993696685	5
0	3027	4796.304618710849	4
0	3029	4798.256198578354	5
0	3032	4800.29127988188	6
0	3035	4801.303507945365	5
0	3037	4803.993323607073	4
0	3039	4808.360229136386	5
0	3042	4809.9909427793	4
0	3044	4822.809442284784	5
0	3047	4824.025690269653	4
0	3049	4824.192695154	5
0	3052	4838.415947556422	4
0	3054	4845.376587702374	5
0	3057	4847.766802988766	6
0	3060	4858.763346499729	7
0	3063	4859.372185068176	8
0	3065	4860.1409610816	7
0	3068	4863.353962620379	8
0	3070	4866.175733545612	7
0	3073	4870.587862549725	6
0	3075	4873.380030716581	5
0	3077	4874.559690616833	4
0	3079	4885.396218123838	5
0	3082	4886.664036976054	6
0	3085	4887.514600780831	7
0	3088	4888.429288168783	8
0	3090	4888.678168556112	9
0	3092	4896.634849733185	8
0	3095	4902.977187154224	9
0	3097	4904.71141747194	10
0	3099	4904.810246010146	11
0	3101	4906.416735694386	12
0	3103	4913.432335773939	11
0	3106	4914.87717776614	10
0	3109	4922.490814571764	9
0	3112	4923.753566811937	8
0	3115	4926.610280247069	7
0	3118	4927.224445388592	6
0	3120	4929.574597072635	5
0	3122	4931.184856413294	6
0	3125	4936.335961821214	5
0	3127	4938.122621884219	4
0	3129	4942.892761162727	3
0	3131	4948.455082032528	4
0	3134	4952.955312290396	3
0	3136	4957.367565814453	4
0	3139	4965.448664766924	5
0	3142	4976.399581182729	4
0	3144	4983.649854916007	5
0	3147	4995.509861417979	6
0	3150	4997.333634030448	5
0	3152	5000.304143801024	4
0	3154	5003.173927941667	5
0	3157	5006.769043866073	4
0	3159	5008.245212455056	5
0	3162	5009.105869409778	4
0	3164	5018.028208953826	3
0	3166	5024.44070954673	2
0	3168	5054.337497563295	3
0	3171	5055.31643504539	4
0	3174	5070.023876059043	3
0	3176	5070.718376066296	2
0	3178	5078.997795997833	3
0	3181	5084.189086075096	4
0	3184	5085.460053169354	5
0	3187	5092.142952392368	4
0	3189	5095.640317371725	5
0	3192	5096.487259177421	6
0	3195	5105.938275638729	7
0	3198	5107.263413222612	6
0	3200	5110.927876658494	5
0	3202	5111.334872576129	4
0	3204	5124.051794774317	5
0	3207	5124.279129240473	6
0	3210	5128.8240700868	5
0	3212	5130.197884053897	4
0	3214	5138.65786045312	5
0	3217	5148.240766017305	4
0	3219	5150.910507089469	5
0	3222	5153.869748212311	6
0	3225	5157.448192818293	7
0	3228	5164.67154433981	6
0	3230	5167.705884690929	5
0	3232	5170.656318713473	4
0	3234	5178.798552021491	5
0	3237	5179.267614821253	6
0	3240	5182.917933764079	5
0	3242	5191.736509666775	4
0	3244	5193.396831317346	3
0	3246	5199.773606295108	4
0	3249	5202.110022023406	3
0	3251	5213.982348122009	4
0	3254	5220.264371860851	5
0	3257	5221.85669656534	4
0	3259	5222.894835986871	3
0	3261	5232.859580478068	4
0	3264	5240.157737136313	3
0	3266	5243.118095126116	4
0	3269	5243.276813379822	3
0	3271	5245.383358196452	4
0	3274	5247.365772774035	3
0	3276	5249.765748063339	4
0	3279	5254.174981791874	5
0	3282	5262.314209202114	4
0	3284	5262.631124969157	3
0	3286	5267.100563432796	4
0	3289	5272.924587103171	3
0	3291	5276.019600156366	4
0	3294	5276.170509744701	5
0	3297	5287.534352863373	4
0	3299	5289.027804067307	5
0	3302	5293.475936393507	6
0	3305	5294.654307822328	7
0	3308	5301.191393448114	6
0	3310	5303.770337993776	5
0	3312	5318.42448371588	6
0	3315	5319.194272912633	7
0	3318	5329.495496788605	6
0	3320	5329.643290829771	7
0	3323	5329.742859480007	6
0	3325	5330.042901975734	5
0	3327	5331.681654947824	4
0	3329	5339.582130799828	3
0	3331	5350.377468486416	4
0	3334	5355.981454426293	3
0	3336	5370.160131067456	2
0	3338	5383.809784386057	3
0	3341	5385.695752680445	4
0	3344	5387.322218554491	5
0	3347	5388.423596340562	6
0	3350	5388.536881124814	7
0	3353	5389.822008402846	6
0	3355	5391.032511775779	7
0	3358	5392.22109729215	8
0	3360	5395.532325090335	7
0	3363	5396.576135735072	8
0	3365	5402.638868987386	7
0	3368	5404.946645086413	8
0	3370	5409.239106873362	7
0	3373	5409.965144263677	8
0	3375	5418.660835057764	9
0	3377	5423.262691317337	8
0	3380	5431.666094408592	7
0	3383	5431.82086695109	6
0	3385	5437.584551115488	5
0	3387	5439.916064164063	4
0	3389	5443.663387305655	5
0	3392	5451.526256098033	4
0	3394	5456.970391492476	3
0	3396	5477.626904254625	2
0	3398	5480.47202171581	3
0	3401	5495.186236076262	4
0	3404	5499.718354351593	3
0	3406	5500.017442894302	4
0	3409	5507.340861348464	5
0	3412	5520.21810826094	4
0	3414	5521.879759122087	5
0	3417	5522.39905531738	6
0	3420	5524.314253087452	5
0	3422	5525.135069317858	4
0	3424	5526.634437035084	3
0	3426	5545.464554166923	4
0	3429	5547.360275281538	5
0	3432	5548.869692585745	4
0	3434	5555.652748730343	5
0	3437	5563.882811240387	6
0	3440	5567.682477287245	5
0	3442	5569.131101069736	6
0	3445	5571.234215319035	7
0	3448	5574.056220631284	6
0	3450	5574.227145480408	5
0	3452	5575.938995535038	4
0	3454	5578.512205433647	5
0	3457	5582.245943219503	6
0	3460	5584.590800426082	5
0	3462	5585.623405588814	6
0	3465	5602.249431641917	5
0	3467	5614.90235416628	6
0	3470	5618.478016227439	7
0	3473	5620.295016944653	6
0	3475	5622.299489244843	5
0	3477	5624.343862229757	4
0	3479	5631.070382816153	5
0	3482	5634.954015561302	4
0	3484	5642.310137090693	5
0	3487	5644.122421140951	6
0	3490	5644.628560929129	5
0	3492	5650.949821448602	6
0	3495	5652.532193685292	7
0	3498	5652.533140381961	6
0	3500	5658.0871991379	7
0	3503	5659.733629005051	8
0	3505	5663.877129850796	7
0	3508	5669.46613287769	6
0	3510	5672.008832357358	7
0	3513	5675.602229089072	6
0	3515	5681.905920606089	7
0	3518	5688.611869377863	8
0	3520	5689.272020442987	9
0	3522	5700.234114815492	8
0	3525	5702.964313735046	7
0	3528	5706.356200504338	6
0	3530	5707.834925321432	7
0	3533	5717.799444754932	6
0	3535	5719.353690792286	5
0	3537	5720.022202099959	6
0	3540	5720.472435844098	7
0	3543	5726.193085878756	8
0	3545	5726.404868003439	9
0	3547	5726.929073074831	10
0	3549	5727.142828431294	11
0	3551	5727.47107134781	10
0	3554	5728.087190175138	9
0	3557	5728.203148016593	8
0	3560	5728.900127974853	7
0	3563	5730.495674551092	6
0	3565	5730.930901059184	7
0	3568	5732.943980060835	8
0	3570	5741.821984719114	9
0	3572	5743.413124474329	8
0	3575	5745.192449913907	7
0	3578	5746.523585790881	8
0	3580	5746.870714156198	9
0	3582	5747.458927346943	10
0	3584	5752.94892454327	11
0	3586	5753.825142433969	12
0	3588	5755.40796297831	13
0	3590	5756.46284424498	12
0	3593	5757.546517436502	13
0	3595	5759.095102177656	12
0	3598	5759.360777909107	13
0	3600	5759.472337202317	14
0	3602	5763.12085157773	15
0	3604	5768.356329861075	14
0	3607	5770.122238918518	15
0	3609	5771.627943637133	14
0	3612	5772.020759691241	13
0	3615	5773.144487685824	12
0	3618	5779.792581193606	13
0	3620	5790.407866097297	12
0	3623	5792.455414239625	11
0	3626	5793.682299132311	12
0	3628	5807.642837500948	11
0	3631	5811.829275253166	10
0	3634	5815.184439130798	9
0	3637	5820.067765199977	10
0	3639	5820.157039135098	9
0	3642	5820.713822356959	8
0	3645	5820.798040562764	7
0	3648	5823.082540715142	6
0	3650	5833.419134257404	7
0	3653	5838.371878481344	8
0	3655	5840.92006703466	7
0	3658	5848.257918160001	8
0	3660	5848.732497308008	7
0	3663	5850.17621022605	8
0	3665	5852.667037045082	9
0	3667	5854.227372493029	8
0	3670	5856.361859780157	7
0	3673	5857.709242206183	6
0	3675	5859.401732818944	5
0	3677	5861.017104266737	6
0	3680	5861.883140904092	5
0	3682	5862.213614255053	4
0	3684	5864.150456742816	3
0	3686	5868.513090786454	4
0	3689	5874.278570633506	3
0	3691	5874.882189036571	4
0	3694	5874.958956425403	5
0	3697	5884.085499014601	6
0	3700	5884.190031535248	5
0	3702	5885.07071078701	6
0	3705	5886.02905464405	5
0	3707	5893.929186338341	4
0	3709	5893.938400604926	3
0	3711	5896.799010476926	2
0	3713	5910.109826693261	3
0	3716	5923.993668136544	4
0	3719	5929.708411114172	5
0	3722	5931.103359740181	6
0	3725	5931.781198294574	7
0	3728	5934.340106825768	6
0	3730	5934.413807429249	5
0	3732	5938.584219572197	6
0	3735	5939.133064873052	5
0	3737	5942.033961376632	4
0	3739	5942.619011753199	5
0	3742	5945.12075591978	6
0	3745	5945.472796300697	5
0	3747	5953.151293587029	6
0	3750	5953.832904714952	7
0	3753	5953.928083565228	8
0	3755	5956.653285147523	7
0	3758	5959.945809687782	6
0	3760	5960.148845331352	7
0	3763	5960.463814819821	6
0	3765	5967.482135944066	5
0	3767	5967.665388169998	6
0	3770	5968.721185839647	7
0	3773	5969.093859560554	8
0	3775	5974.766122474412	9
0	3777	5977.608725082333	10
0	3779	5981.194268600056	9
0	3782	5981.53583133099	8
0	3785	5981.565828984026	7
0	3788	5986.810739936939	8
0	3790	5986.844655982573	7
0	3793	5998.015043146592	6
0	3795	5999.087871018041	5
0	3797	6008.435336426872	6
0	3800	6008.811686635575	5
0	3802	6008.891786959428	6
0	3805	6010.351664017903	5
0	3807	6012.204115959766	4
0	3809	6015.417945556558	5
0	3812	6029.962293688553	4
0	3814	6034.329668661227	5
0	3817	6035.072143971821	6
0	3820	6047.435659754273	5
0	3822	6050.69426762759	6
0	3825	6052.428508568948	5
0	3827	6057.754062749535	4
0	3829	6058.710307417383	3
0	3831	6064.705150786443	4
0	3834	6073.454424365523	3
0	3836	6076.341397061131	4
0	3839	6096.944785014733	5
0	3842	6104.451197288831	4
0	3844	6115.249099603131	3
0	3846	6115.866713581326	4
0	3849	6127.650252968394	5
0	3852	6130.879684760813	6
0	3855	6135.364594899902	7
0	3858	6140.81165061981	6
0	3860	6145.739720710512	7
0	3863	6151.185314707483	8
0	3865	6157.514710681561	9
0	3867	6161.517560552748	10
0	3869	6173.378220113004	11
0	3871	6178.783047560241	10
0	3874	6179.183062796074	11
0	3876	6186.498022062381	10
0	3879	6193.594324822487	11
0	3881	6193.752388240501	12
0	3883	6195.551454007476	11
0	3886	6200.624570618829	10
0	3889	6204.05736800974	11
0	3891	6204.089531676111	10
0	3894	6209.106875005208	9
0	3897	6212.446375971693	10
0	3899	6215.823882880979	9
0	3902	6217.456055097347	8
0	3905	6220.481642666369	7
0	3908	6222.981890043579	6
0	3910	6230.956835944875	5
0	3912	6232.459869948049	4
0	3914	6232.68705077788	3
0	3916	6238.982854890061	4
0	3919	6241.602486812495	5
0	3922	6246.883319389441	4
0	3924	6247.084084303217	3
0	3926	6248.054367102952	4
0	3929	6253.127385661012	5
0	3932	6255.644959848178	4
0	3934	6263.309091847217	3
0	3936	6275.102096819968	4
0	3939	6281.872491702329	5
0	3942	6285.802862587968	6
0	3945	6287.439014488742	7
0	3948	6299.653287922527	6
0	3950	6300.661186326063	7
0	3953	6307.424847773483	8
0	3955	6308.532794786537	9
0	3957	6308.845746617668	8
0	3960	6311.905644308647	9
0	3962	6315.14204558431	8
0	3965	6316.317513308071	7
0	3968	6316.571478325512	8
0	3970	6318.82905117323	9
0	3972	6320.900271633335	8
0	3975	6321.31875577933	9
0	3977	6325.621466161986	10
0	3979	6329.154880331322	9
0	3982	6331.577497337525	8
0	3985	6335.827628594247	9
0	3987	6338.276880007194	8
0	3990	6341.419427272723	9
0	3992	6341.426796721302	8
0	3995	6341.649434048791	7
0	3998	6344.5159231442	6
0	4000	6345.804163147457	5
0	4002	6352.820597875443	4
0	4004	6353.192572331405	3
0	4006	6353.995129859943	4
0	4009	6360.746000683072	5
0	4012	6364.802459825137	4
0	4014	6365.113200706422	5
0	4017	6370.217360408776	4
0	4019	6371.449232869232	5
0	4022	6377.799331504969	4
0	4024	6380.462395236582	5
0	4027	6392.764837447796	6
0	4030	6394.368615157716	7
0	4033	6395.922034683935	8
0	4035	6406.164461676126	9
0	4037	6409.189715631878	8
0	4040	6412.718011337494	7
0	4043	6415.211462332346	8
0	4045	6416.124121441104	9
0	4047	6420.774695438428	10
0	4049	6429.172914439581	9
0	4052	6434.369542890141	10
0	4054	6435.865620926269	11
0	4056	6435.895433202256	10
0	4059	6437.761648976941	11
0	4061	6438.298764484998	10
0	4064	6443.752948770804	11
0	4066	6444.308748067932	12
0	4068	6446.527347722112	11
0	4071	6448.588470723911	10
0	4074	6451.161926337322	11
0	4076	6455.158311549509	12
0	4078	6457.706848087474	11
0	4081	6458.823015505845	12
0	4083	6460.604479874758	13
0	4085	6464.169126563019	14
0	4087	6470.484422302802	13
0	4090	6475.501256365629	12
0	4093	6478.601143134639	13
0	4095	6480.384189958415	14
0	4097	6480.837402072947	13
0	4100	6486.550506846493	12
0	4103	6490.866953013253	13
0	4105	6491.386442044633	12
0	4108	6491.852402233361	11
0	4111	6505.082166252659	10
0	4114	6506.865320033949	9
0	4117	6511.24958564244	10
0	4119	6511.954382568468	11
0	4121	6516.639876432002	10
0	4124	6516.875242508118	9
0	4127	6517.558866208675	10
0	4129	6518.687366201442	11
0	4131	6529.648224997737	12
0	4133	6533.565653163563	11
0	4136	6538.322688265135	12
0	4138	6539.007193756659	11
0	4141	6547.468740484944	12
0	4143	6547.739695598167	11
0	4146	6551.431479248258	10
0	4149	6553.909090846878	11
0	4151	6556.499357828342	12
0	4153	6561.96565327167	11
0	4156	6564.061180143845	12
0	4158	6565.116786920083	11
0	4161	6570.805196445538	10
0	4164	6574.338699437996	9
0	4167	6582.108477012939	8
0	4170	6582.97557972518	9
0	4172	6586.052181421527	8
0	4175	6591.699544718145	7
0	4178	6593.0133795681	8
0	4180	6599.296647796622	7
0	4183	6599.965761830543	6
0	4185	6600.253249268313	7
0	4188	6604.53482723879	8
0	4190	6605.8988632389	7
0	4193	6607.658485779129	6
0	4195	6609.440484895232	7
0	4198	6613.361232539684	6
0	4200	6613.478378285348	5
0	4202	6613.927453076481	4
0	4204	6617.89617778304	5
0	4207	6619.824336448044	4
0	4209	6630.135900196562	5
0	4212	6632.827691472223	4
0	4214	6633.232479766597	3
0	4216	6649.56830207625	2
0	4218	6661.636261821772	3
0	4221	6671.258878470247	4
0	4224	6673.970785476917	5
0	4227	6674.778167598752	6
0	4230	6678.41043934269	7
0	4233	6682.629979106508	6
0	4235	6693.134758797048	5
0	4237	6711.92332511106	6
0	4240	6713.397048099959	5
0	4242	6716.266078633525	4
0	4244	6719.99392338901	3
0	4246	6721.395382803698	4
0	4249	6733.014144464761	5
0	4252	6741.270337782856	4
0	4254	6748.291534107593	3
0	4256	6754.135764572577	4
0	4259	6758.378622235023	5
0	4262	6760.925878873304	6
0	4265	6766.444268290767	7
0	4268	6769.470013964722	6
0	4270	6776.196448386751	5
0	4272	6777.778538257044	4
0	4274	6781.628239423818	5
0	4277	6784.823085022979	6
0	4280	6785.07315751089	5
0	4282	6787.379763551733	6
0	4285	6788.467179177562	5
0	4287	6794.628660280361	4
0	4289	6797.565224563262	3
0	4291	6799.595141562426	4
0	4294	6801.087704582751	5
0	4297	6809.845182424348	4
0	4299	6811.046955724177	3
0	4301	6813.971384454029	4
0	4304	6816.813678908581	3
0	4306	6820.76036112156	2
0	4308	6825.200475677991	3
0	4311	6850.132558352909	4
0	4314	6870.050490227758	3
0	4316	6870.054618580812	4
0	4319	6875.057838572139	3
0	4321	6876.488396973263	4
0	4324	6878.389551301724	3
0	4326	6881.64720432247	4
0	4329	6885.959395230134	3
0	4331	6886.668905580396	4
0	4334	6891.401810428518	5
0	4337	6899.654605028008	6
0	4340	6901.678084662547	7
0	4343	6904.939288296813	8
0	4345	6905.592698752008	7
0	4348	6906.235516655066	8
0	4350	6908.447341106926	9
0	4352	6914.61356395687	8
0	4355	6917.670555761562	7
0	4358	6917.9998109912	8
0	4360	6924.301725772976	9
0	4362	6925.007906505612	8
0	4365	6926.667779882006	9
0	4367	6939.351096984562	10
0	4369	6942.332195810001	9
0	4372	6945.312652860764	8
0	4375	6946.626281798893	9
0	4377	6950.032453411988	8
0	4380	6951.864884254093	9
0	4382	6958.377728820269	8
0	4385	6961.291138004385	7
0	4388	6965.112895688288	8
0	4390	6969.918467524828	7
0	4393	6970.452433046155	8
0	4395	6976.53667287478	7
0	4398	6984.109520517117	6
0	4400	6987.004004593193	5
0	4402	6990.127399006889	6
0	4405	6990.142338249959	7
0	4408	6990.440167238783	6
0	4410	6997.359178554242	5
0	4412	7004.856756981806	6
0	4415	7007.491236992696	5
0	4417	7023.026404433439	4
0	4419	7027.541174477167	3
0	4421	7028.883646118907	2
0	4423	7031.514069409083	3
0	4426	7041.518408510496	2
0	4428	7042.741809956761	3
0	4431	7047.876581042742	4
0	4434	7050.858412438485	3
0	4436	7051.356880972637	4
0	4439	7052.132184395386	5
0	4442	7054.804498726606	4
0	4444	7058.262053815589	5
0	4447	7070.282957175218	6
0	4450	7075.86548385455	5
0	4452	7075.915624905579	4
0	4454	7081.687555631535	3
0	4456	7082.008052624154	2
0	4458	7087.438066706966	1
0	4460	7090.17601771727	2
0	4463	7112.098112242894	3
0	4466	7115.732902812458	4
0	4469	7119.35987243661	5
0	4472	7120.233986233286	6
0	4475	7129.8480164208	7
0	4478	7131.386872840673	6
0	4480	7131.865074828285	5
0	4482	7133.42009807038	4
0	4484	7135.731199534525	3
0	4486	7136.143769326915	4
0	4489	7140.449386576042	5
0	4492	7144.025731148855	6
0	4495	7151.497624921524	7
0	4498	7162.537554613324	8
0	4500	7163.179133338716	9
0	4502	7167.913539989998	8
0	4505	7170.69423789675	9
0	4507	7173.186388175403	10
0	4509	7173.534861219202	9
0	4512	7174.603042646657	10
0	4514	7183.996590754809	11
0	4516	7190.967864558604	10
0	4519	7191.34229405674	9
0	4522	7193.822920701585	8
0	4525	7196.119616539779	7
0	4528	7197.68252381806	8
0	4530	7200.068149537316	7
0	4533	7200.464169572798	8
0	4535	7202.000584461051	7
0	4538	7203.076420362296	6
0	4540	7203.125010125388	5
0	4542	7203.847772422036	6
0	4545	7203.848064967284	5
0	4547	7211.974624370542	6
0	4550	7217.331760350785	5
0	4552	7219.802210840416	6
0	4555	7223.239741479073	7
0	4558	7228.566119813474	8
0	4560	7229.878404483744	7
0	4563	7232.42913030001	8
0	4565	7232.518363485365	9
0	4567	7236.650882716405	8
0	4570	7240.629469500152	7
0	4573	7249.731569185553	6
0	4575	7252.750428970132	5
0	4577	7271.647787121465	6
0	4580	7274.785014120997	5
0	4582	7279.241888361363	6
0	4585	7282.539994528779	7
0	4588	7288.092313899141	6
0	4590	7292.338700572207	5
0	4592	7293.687086228312	4
0	4594	7297.368918082541	5
0	4597	7299.146112834131	6
0	4600	7299.201710576304	7
0	4603	7299.432563975336	6
0	4605	7299.977124208904	7
0	4608	7301.076588747769	8
0	4610	7302.217571387268	7
0	4613	7309.661819752779	6
0	4615	7311.102699318523	5
0	4617	7312.475409398887	6
0	4620	7317.143706070633	7
0	4623	7320.641037221468	8
0	4625	7326.807173367174	7
0	4628	7337.421748453312	6
0	4630	7338.515913956493	5
0	4632	7343.023404072613	4
0	4634	7346.99887098862	3
0	4636	7349.116099940976	2
0	4638	7364.071136525657	1
0	4640	7365.993802798116	2
0	4643	7372.120484744276	3
0	4646	7377.266787237758	2
0	4648	7378.045215790911	3
0	4651	7382.365177718924	4
0	4654	7382.916664344331	3
0	4656	7388.504770276702	4
0	4659	7389.429189798832	5
0	4662	7392.918541903786	6
0	4665	7394.291702630218	7
0	4668	7397.586673276521	6
0	4670	7398.560474664196	7
0	4673	7400.308186363525	8
0	4675	7400.745926548148	7
0	4678	7401.970119078643	8
0	4680	7402.663959499295	7
0	4683	7405.833187159405	6
0	4685	7407.564673039454	5
0	4687	7411.319975634204	6
0	4690	7416.498778271988	7
0	4693	7420.078038441589	8
0	4695	7423.863447991989	7
0	4698	7425.697256052047	8
0	4700	7428.393124833908	9
0	4702	7430.306072435449	8
0	4705	7441.425603482728	7
0	4708	7442.201812654262	6
0	4710	7442.339915342457	5
0	4712	7450.132138724762	6
0	4715	7452.328687543676	5
0	4717	7453.98877858888	6
0	4720	7457.450841018077	5
0	4722	7458.143668360875	6
0	4725	7458.581541763148	5
0	4727	7460.810681954069	6
0	4730	7468.193664844625	7
0	4733	7468.554907306344	8
0	4735	7475.718269072075	7
0	4738	7476.359539987889	6
0	4740	7478.45214327071	7
0	4743	7481.907548798876	8
0	4745	7482.707736471962	7
0	4748	7483.831530841532	6
0	4750	7502.316755739876	7
0	4753	7502.572966965364	8
0	4755	7505.313659266285	9
0	4757	7506.100047017128	8
0	4760	7510.340465515666	7
0	4763	7511.26834191937	6
0	4765	7511.496625260156	5
0	4767	7512.683644317635	4
0	4769	7515.775162737279	5
0	4772	7516.204466514605	6
0	4775	7517.225333432751	5
0	4777	7518.725329325765	4
0	4779	7520.506651376063	5
0	4782	7521.108231005665	6
0	4785	7521.855923362456	5
0	4787	7521.9494380701	6
0	4790	7524.61096167918	5
0	4792	7525.673291259013	6
0	4795	7530.133710551591	7
0	4798	7532.12987482562	6
0	4800	7542.425822468244	7
0	4803	7545.749922507791	6
0	4805	7550.339309397806	7
0	4808	7550.937989724283	6
0	4810	7551.422368292733	7
0	4813	7551.626792458871	8
0	4815	7554.35474798047	7
0	4818	7555.411445019491	6
0	4820	7563.036438689168	5
0	4822	7563.685158757883	6
0	4825	7563.725686053058	7
0	4828	7565.348301431795	6
0	4830	7571.634740052713	7
0	4833	7573.973563042384	6
0	4835	7575.391662401495	7
0	4838	7581.869504211863	6
0	4840	7589.711994223055	5
0	4842	7594.996864336906	4
0	4844	7605.700337480161	5
0	4847	7626.933262338213	4
0	4849	7627.898274906908	5
0	4852	7633.68891970805	4
0	4854	7640.113913002337	5
0	4857	7643.828716828235	4
0	4859	7644.067138616191	5
0	4862	7644.898294155976	4
0	4864	7659.717790467402	5
0	4867	7662.272859028434	6
0	4870	7662.902661964828	7
0	4873	7666.615641967935	6
0	4875	7670.34238087167	7
0	4878	7672.77389839642	8
0	4880	7683.539969885419	9
0	4882	7687.11733394799	10
0	4884	7687.788945707051	9
0	4887	7695.904631471667	8
0	4890	7698.604783800805	9
0	4892	7700.822629663297	10
0	4894	7706.037242727283	9
0	4897	7716.317264416938	8
0	4900	7719.721089115643	7
0	4903	7722.16006989024	6
0	4905	7725.622966521917	5
0	4907	7725.938197646298	6
0	4910	7730.936833159898	5
0	4912	7736.047123792419	6
0	4915	7736.456534588117	7
0	4918	7742.475454334291	6
0	4920	7747.334277508382	5
0	4922	7747.360571863159	6
0	4925	7754.807484723182	5
0	4927	7757.834718250889	6
0	4930	7757.849158869245	7
0	4933	7758.43374594474	6
0	4935	7760.508900172525	5
0	4937	7762.344089707885	6
0	4940	7764.026903633217	5
0	4942	7764.651724846484	6
0	4945	7772.581503123978	5
0	4947	7774.782607182517	6
0	4950	7775.447325009627	5
0	4952	7781.525297294198	4
0	4954	7787.984612872078	5
0	4957	7796.780093209251	6
0	4960	7798.449389198226	5
0	4962	7810.074222816811	4
0	4964	7812.199185846292	3
0	4966	7821.455911481681	4
0	4969	7822.270162838372	3
0	4971	7833.127777442423	4
0	4974	7835.989035593773	3
0	4976	7840.360911040248	2
0	4978	7841.145179998014	3
0	4981	7853.820686372143	2
0	4983	7858.563872785269	3
0	4986	7863.147722569859	4
0	4989	7864.196859812598	5
0	4992	7864.256980668666	6
0	4995	7864.351332056967	7
0	4998	7864.583754654922	8
0	5000	7873.184210116906	9
0	5002	7875.60288943053	8
0	5005	7875.653229164796	7
0	5008	7877.695311385478	8
0	5010	7879.656780096795	7
0	5013	7879.826594645616	8
0	5015	7881.539358480917	7
0	5018	7882.76584946348	6
0	5020	7885.343334402698	5
0	5022	7887.748468792986	4
0	5024	7894.564671242238	5
0	5027	7900.437102581592	4
0	5029	7902.044295626218	5
0	5032	7905.509692233438	6
0	5035	7914.912920895829	5
0	5037	7916.353781159346	6
0	5040	7918.679409229458	7
0	5043	7920.00300549791	8
0	5045	7927.524746463023	9
0	5047	7932.508997708496	10
0	5049	7939.011561836157	9
0	5052	7939.487850730177	10
0	5054	7941.204048553132	9
0	5057	7943.201836026345	8
0	5060	7943.760617583913	7
0	5063	7950.288470808644	8
0	5065	7950.831932677024	7
0	5068	7951.376050874529	6
0	5070	7956.671305542799	7
0	5073	7957.230027658833	6
0	5075	7959.500361226763	7
0	5078	7969.697684717769	6
0	5080	7986.279643951065	7
0	5083	7989.58931521572	8
0	5085	7990.44181548206	9
0	5087	7995.03623130566	8
0	5090	7995.274893265393	7
0	5093	7995.862012708087	8
0	5095	7997.260190404567	9
0	5097	8008.409913282387	8
0	5100	8010.884519511278	7
0	5103	8016.216642306766	6
0	5105	8020.645188752212	7
0	5108	8029.893750800157	6
0	5110	8032.194783852935	7
0	5113	8032.64216949449	8
0	5115	8035.456294414356	7
0	5118	8036.602973899369	6
0	5120	8039.943888613145	7
0	5123	8045.111235664643	6
0	5125	8045.454604931134	5
0	5127	8048.269056766238	6
0	5130	8050.182190300819	5
0	5132	8050.3158676088	6
0	5135	8054.185256871454	5
0	5137	8054.470955564062	4
0	5139	8056.39375390466	5
0	5142	8061.948625791709	4
0	5144	8063.623638941821	3
0	5146	8074.854938114738	2
0	5148	8077.535495509309	3
0	5151	8081.643120089493	4
0	5154	8082.511443227015	3
0	5156	8083.076536900653	2
0	5158	8084.171148141952	1
0	5160	8097.836861469255	2
0	5163	8103.404119399164	3
0	5166	8104.609386124135	4
0	5169	8104.69733190584	5
0	5172	8106.294379726026	4
0	5174	8115.246265356508	3
0	5176	8120.221571943078	2
0	5178	8129.08452153849	3
0	5181	8130.748591639096	4
0	5184	8132.58296266034	3
0	5186	8134.21169606242	4
0	5189	8135.265711975366	5
0	5192	8137.008493469432	6
0	5195	8137.950382632995	5
0	5197	8143.408048786854	4
0	5199	8144.420248291551	3
0	5201	8147.441932375055	4
0	5204	8152.923835530239	5
0	5207	8155.125157663307	4
0	5209	8156.111462200682	3
0	5211	8161.594894659748	2
0	5213	8174.082834120271	3
0	5216	8186.843634471052	2
0	5218	8190.058554219555	3
0	5221	8196.435489205167	2
0	5223	8210.272398966871	3
0	5226	8215.436837439723	4
0	5229	8215.715546877765	5
0	5232	8218.6505163705	4
0	5234	8221.633730570421	5
0	5237	8221.96528365014	6
0	5240	8222.365602732754	7
0	5243	8225.50557986475	8
0	5245	8228.46274806553	7
0	5248	8233.810807536928	6
0	5250	8237.402334918397	5
0	5252	8239.852595440363	4
0	5254	8242.875739432908	3
0	5256	8247.685765407192	4
0	5259	8253.30270973854	5
0	5262	8255.010573388492	6
0	5265	8259.705960608818	5
0	5267	8267.116267512044	4
0	5269	8271.52269006096	3
0	5271	8288.097156934385	4
0	5274	8290.13974182072	5
0	5277	8291.142009489248	6
0	5280	8294.634725704827	7
0	5283	8297.16979142792	6
0	5285	8297.526489929433	7
0	5288	8298.759998633229	8
0	5290	8303.469994240079	9
0	5292	8307.144464942651	8
0	5295	8310.237140096832	7
0	5298	8310.392715972566	6
0	5300	8316.633256808076	5
0	5302	8317.713380010744	6
0	5305	8330.219001835956	7
0	5308	8332.983297702006	6
0	5310	8334.988351402743	5
0	5312	8343.678489643394	6
0	5315	8344.911182986552	5
0	5317	8346.8556628565	4
0	5319	8352.148830724378	3
0	5321	8352.325372905637	2
0	5323	8353.632108102872	3
0	5326	8358.111802682731	2
0	5328	8377.307085880888	3
0	5331	8384.339540031612	2
0	5333	8386.926684671721	3
0	5336	8390.86056616335	4
0	5339	8394.280679216231	5
0	5342	8405.078979165697	6
0	5345	8410.593396247307	7
0	5348	8411.846055683008	8
0	5350	8421.830997599694	7
0	5353	8427.068180873458	8
0	5355	8428.293861912241	7
0	5358	8429.441684645526	8
0	5360	8432.640972304374	9
0	5362	8439.962424531928	8
0	5365	8440.741992122672	7
0	5368	8441.070245667522	6
0	5370	8445.29420073062	7
0	5373	8456.973948947094	8
0	5375	8460.709814480395	7
0	5378	8461.873280550762	6
0	5380	8462.116350998209	5
0	5382	8469.812720178074	4
0	5384	8472.431249847733	5
0	5387	8481.726739593984	4
0	5389	8488.141065702912	3
0	5391	8491.785196591832	2
0	5393	8499.824905459783	3
0	5396	8503.586828327656	4
0	5399	8504.181548108014	3
0	5401	8516.80424311907	4
0	5404	8521.022238535118	5
0	5407	8521.118344144361	6
0	5410	8522.588808776001	5
0	5412	8522.939401759715	6
0	5415	8525.747414678751	7
0	5418	8527.769307936083	6
0	5420	8544.388461207109	5
0	5422	8552.566842046795	6
0	5425	8558.476280539021	5
0	5427	8562.48234124624	6
0	5430	8562.642256419326	7
0	5433	8565.905610249693	8
0	5435	8568.169331205623	9
0	5437	8572.691146394427	10
0	5439	8572.974333438118	9
0	5442	8573.407220195507	8
0	5445	8575.038888514214	7
0	5448	8578.557076322754	6
0	5450	8594.78016481788	5
0	5452	8606.055751859617	4
0	5454	8614.886339307557	5
0	5457	8616.014834383859	4
0	5459	8620.785334914541	3
0	5461	8623.566803175505	4
0	5464	8625.699784330287	5
0	5467	8629.599074979923	4
0	5469	8632.433458995575	3
0	5471	8635.692893005621	2
0	5473	8639.820636859648	1
0	5475	8646.102254498039	2
0	5478	8657.044483909977	3
0	5481	8657.178325107765	2
0	5483	8665.951044861691	3
0	5486	8676.828702827456	4
0	5489	8679.879921230954	5
0	5492	8680.930426555526	4
0	5494	8681.440990377568	5
0	5497	8683.957073613973	4
0	5499	8687.751930335206	5
0	5502	8688.794029943347	6
0	5505	8694.806001678485	5
0	5507	8704.073044613064	4
0	5509	8715.524626536347	5
0	5512	8733.247674991376	4
0	5514	8735.42048335902	3
0	5516	8739.961349501823	2
0	5518	8740.00320299645	3
0	5521	8742.588807364255	2
0	5523	8753.259127543016	1
0	5525	8754.38144716168	2
0	5528	8754.436747626841	3
0	5531	8765.922981612447	2
0	5533	8767.027564920797	3
0	5536	8767.525294530886	2
0	5538	8775.753316742046	1
0	5540	8788.897053778343	2
0	5543	8806.7633958372	3
0	5546	8806.826049976885	4
0	5549	8808.020672817501	5
0	5552	8808.591492434934	6
0	5555	8811.62079634527	7
0	5558	8818.864452506288	8
0	5560	8833.023602827398	9
0	5562	8834.487000106182	8
0	5565	8838.475650181332	9
0	5567	8841.361479711023	10
0	5569	8842.672846125138	11
0	5571	8843.358741445533	10
0	5574	8843.52868939347	11
0	5576	8848.499794084414	12
0	5578	8854.774668019192	13
0	5580	8856.870839969494	14
0	5582	8861.700828803797	15
0	5584	8863.203750911697	16
0	5586	8866.287894057666	15
0	5589	8867.361718535405	14
0	5592	8869.451761803702	13
0	5595	8869.488093659547	12
0	5598	8870.624213075517	13
0	5600	8875.971162813469	12
0	5603	8878.452716639728	13
0	5605	8879.014819420884	12
0	5608	8880.413638580988	11
0	5611	8880.926620937609	10
0	5614	8884.067013193464	9
0	5617	8885.636117426183	10
0	5619	8888.263998308174	11
0	5621	8891.083645346626	12
0	5623	8891.416734618465	13
0	5625	8891.461438906535	14
0	5627	8898.087336074101	13
0	5630	8899.192416910876	12
0	5633	8899.195819018251	11
0	5636	8904.995377835149	10
0	5639	8909.577006306973	11
0	5641	8910.636683379786	12
0	5643	8914.163136008755	13
0	5645	8926.270793439905	14
0	5647	8932.635976065993	13
0	5650	8939.150940396775	12
0	5653	8941.62698588584	11
0	5656	8945.056035683028	12
0	5658	8946.603568845598	11
0	5661	8947.836288947577	12
0	5663	8950.012541126649	11
0	5666	8956.248377068804	10
0	5669	8959.723023941979	9
0	5672	8961.007477272465	8
0	5675	8975.934275299867	9
0	5677	8980.22826301874	8
0	5680	8983.487385170763	7
0	5683	8984.754171908795	6
0	5685	8985.787870052758	7
0	5688	8986.732266591044	6
0	5690	8987.28678085091	5
0	5692	8989.475370210433	6
0	5695	8991.089011804648	5
0	5697	8998.945351868477	6
0	5700	9000.341398913582	5
0	5702	9003.753884930744	4
0	5704	9003.769451042693	5
0	5707	9007.305163337629	6
0	5710	9009.783761218477	5
0	5712	9019.454359804897	6
0	5715	9021.780091121895	7
0	5718	9028.946087049512	8
0	5720	9030.542512958399	7
0	5723	9032.237302206511	8
0	5725	9037.189778411022	7
0	5728	9043.078994112155	8
0	5730	9045.937705069734	7
0	5733	9046.997918356202	8
0	5735	9049.681671089035	7
0	5738	9051.543132190709	6
0	5740	9064.602771553512	5
0	5742	9066.206583426546	4
0	5744	9069.702632087118	3
0	5746	9074.225312152094	4
0	5749	9074.830711958314	5
0	5752	9077.053509002628	6
0	5755	9078.020298151392	7
0	5758	9081.171394506813	6
0	5760	9083.333584503826	5
0	5762	9087.316980951615	6
0	5765	9092.938877620898	7
0	5768	9093.031700574039	6
0	5770	9095.489839403331	5
0	5772	9096.360299608828	6
0	5775	9099.798181736456	7
0	5778	9102.713323845732	8
0	5780	9102.795944537378	9
0	5782	9104.182247735136	8
0	5785	9109.373821811502	9
0	5787	9110.205827498803	10
0	5789	9110.76104013208	9
0	5792	9110.976258843773	10
0	5794	9115.530949497698	9
0	5797	9123.54675869893	10
0	5799	9125.248109891674	9
0	5802	9127.56423510125	8
0	5805	9131.34038091516	9
0	5807	9134.808552740464	10
0	5809	9135.851640987701	11
0	5811	9142.135143515266	10
0	5814	9145.143837618396	11
0	5816	9147.343849873077	10
0	5819	9148.955133096081	9
0	5822	9152.451426733762	8
0	5825	9152.693476249897	9
0	5827	9158.759471959692	10
0	5829	9159.567439719635	11
0	5831	9162.540165958721	12
0	5833	9163.652639453547	13
0	5835	9165.649180107566	12
0	5838	9168.786498009467	11
0	5841	9173.133510844949	12
0	5843	9174.464755240819	11
0	5846	9178.317073405832	12
0	5848	9182.065039589291	11
0	5851	9184.551599076204	12
0	5853	9191.877662491734	11
0	5856	9193.041040567754	12
0	5858	9197.202525756025	11
0	5861	9203.674067640206	10
0	5864	9207.764134801745	11
0	5866	9220.297876406049	10
0	5869	9226.522498194854	11
0	5871	9228.203280487503	10
0	5874	9234.249386709093	9
0	5877	9239.853173656442	10
0	5879	9243.299969623309	9
0	5882	9243.475231213198	10
0	5884	9246.00692246171	11
0	5886	9249.42263031053	10
0	5889	9250.930958723843	11
0	5891	9252.122060274651	12
0	5893	9254.213409813014	11
0	5896	9254.959864648242	10
0	5899	9256.202729303903	11
0	5901	9267.338848290479	10
0	5904	9268.271313164174	11
0	5906	9280.377683012238	10
0	5909	9280.57769153773	9
0	5912	9281.771546505392	8
0	5915	9286.938262974572	9
0	5917	9287.752464507732	10
0	5919	9292.594096457253	9
0	5922	9296.89811534936	8
0	5925	9301.652954755447	9
0	5927	9302.96199981092	8
0	5930	9320.495809594	7
0	5933	9321.826431835491	6
0	5935	9323.930580418284	5
0	5937	9326.047606289984	6
0	5940	9326.177324644074	7
0	5943	9326.805164316401	6
0	5945	9327.216579658341	7
0	5948	9328.983607501703	8
0	5950	9330.373494031883	9
0	5952	9334.28329471677	8
0	5955	9345.176883702543	9
0	5957	9346.573603918272	10
0	5959	9349.524966804646	9
0	5962	9353.908658048823	8
0	5965	9358.532924839403	9
0	5967	9358.84865749278	10
0	5969	9359.247651889878	9
0	5972	9366.794474678691	8
0	5975	9384.02186298069	7
0	5978	9387.115367691377	6
0	5980	9387.588178330102	7
0	5983	9387.804186575024	8
0	5985	9388.570542077949	7
0	5988	9395.068186320678	6
0	5990	9395.475264529844	7
0	5993	9396.330548153565	6
0	5995	9399.063872341552	5
0	5997	9399.632698005429	4
0	5999	9402.255438845063	3
0	6001	9403.338268580746	2
0	6003	9406.391117320396	3
0	6006	9412.21563918767	2
0	6008	9420.686599440557	1
0	6010	9428.780344074038	2
0	6013	9430.524433383795	3
0	6016	9433.093519107429	4
0	6019	9434.508646856135	5
0	6022	9438.83884684591	4
0	6024	9441.236262439863	5
0	6027	9444.70884359517	4
0	6029	9449.83814877731	5
0	6032	9450.105709164944	6
0	6035	9450.751272289369	5
0	6037	9451.783752276998	6
0	6040	9452.836006967953	7
0	6043	9457.224865943876	6
0	6045	9458.292794139562	7
0	6048	9460.258686021952	6
0	6050	9462.018804760721	5
0	6052	9462.724355283011	6
0	6055	9464.597514583152	7
0	6058	9478.780183839552	6
0	6060	9481.261463713423	7
0	6063	9489.549578179984	6
0	6065	9494.200743476781	5
0	6067	9503.449391525	4
0	6069	9509.485712280706	5
0	6072	9510.58506743842	4
0	6074	9511.171983623957	5
0	6077	9512.270944898866	4
0	6079	9513.341061516507	3
0	6081	9520.870749750696	4
0	6084	9535.478912632251	5
0	6087	9537.533876747362	6
0	6090	9540.624272211937	7
0	6093	9545.66413470555	6
0	6095	9545.749508544457	7
0	6098	9546.080366338886	8
0	6100	9546.26702301438	7
0	6103	9547.28871422992	6
0	6105	9548.028248857593	7
0	6108	9556.287442450042	8
0	6110	9556.580876994556	9
0	6112	9559.53084013674	10
0	6114	9560.506242138369	9
0	6117	9565.828284000187	10
0	6119	9568.609648778165	11
0	6121	9571.152645046244	10
0	6124	9576.940789451102	11
0	6126	9578.880775987337	12
0	6128	9580.159472846292	11
0	6131	9581.910431720309	12
0	6133	9582.666081260779	11
0	6136	9588.364640961324	10
0	6139	9589.30542730537	9
0	6142	9590.02910037061	8
0	6145	9591.10495044088	9
0	6147	9593.527422685695	10
0	6149	9596.377085784904	9
0	6152	9597.127431537619	10
0	6154	9597.393055101527	9
0	6157	9597.672223557372	8
0	6160	9606.817065818818	9
0	6162	9608.518552327979	8
0	6165	9610.155421876737	7
0	6168	9614.391765137266	8
0	6170	9617.179403664215	7
0	6173	9623.575747874199	6
0	6175	9623.652967282614	5
0	6177	9623.910616437006	4
0	6179	9627.00951830838	3
0	6181	9630.43266886482	2
0	6183	9635.544619410912	3
0	6186	9639.018826069603	2
0	6188	9639.462116020238	1
0	6190	9644.645441273671	2
0	6193	9655.4259197955	1
0	6195	9658.330162149162	2
0	6198	9658.486642140355	3
0	6201	9658.633050220835	2
0	6203	9664.836035424177	3
0	6206	9671.648009088889	4
0	6209	9676.489603378268	5
0	6212	9677.369489894161	6
0	6215	9678.834841145365	5
0	6217	9696.377712441052	4
0	6219	9696.541400020663	3
0	6221	9697.511736960328	2
0	6223	9700.557944028625	3
0	6226	9712.077632178857	4
0	6229	9717.037414605626	5
0	6232	9717.580560643974	4
0	6234	9718.913024097091	3
0	6236	9720.684078085761	4
0	6239	9721.09459176728	3
0	6241	9727.285992393764	2
0	6243	9730.604310619939	1
0	6245	9756.950147216333	2
0	6248	9760.615079490586	3
0	6251	9760.7089436669	4
0	6254	9761.095342629881	3
0	6256	9762.612442931555	2
0	6258	9776.856445219823	3
0	6261	9777.961633484663	4
0	6264	9781.33181634509	3
0	6266	9782.844557586697	2
0	6268	9784.813292795347	3
0	6271	9785.037395764553	4
0	6274	9810.272252402755	5
0	6277	9811.121992306691	4
0	6279	9816.503425594718	5
0	6282	9820.935661778359	6
0	6285	9820.991505537495	5
0	6287	9825.267134957216	6
0	6290	9836.583535077414	7
0	6293	9842.929320458451	6
0	6295	9843.060708530884	7
0	6298	9843.70377419545	6
0	6300	9846.037886067669	5
0	6302	9865.584265059761	4
0	6304	9867.825291716547	5
0	6307	9868.060063300582	6
0	6310	9877.025293737732	5
0	6312	9879.240973903458	4
0	6314	9881.51366430885	5
0	6317	9888.620818578239	6
0	6320	9888.991502342209	7
0	6323	9891.848154550224	8
0	6325	9896.941237975663	9
0	6327	9910.864042572607	8
0	6330	9913.15069144196	7
0	6333	9913.543659269372	8
0	6335	9913.840233111328	7
0	6338	9916.837589581351	6
0	6340	9921.428388536094	5
0	6342	9943.10598968075	6
0	6345	9952.685831768229	5
0	6347	9954.803728145609	4
0	6349	9958.963947927891	3
0	6351	9964.899237147291	4
0	6354	9970.070821647026	5
0	6357	9970.782782430078	6
0	6360	9972.022369920795	5
0	6362	9978.239549879135	4
0	6364	9980.729705518813	3
0	6366	9982.879645065556	4
0	6369	9984.703102124714	5
0	6372	9985.613442942881	6
0	6375	9986.552046158118	5
0	6377	9987.138923561014	6
0	6380	9993.039466776137	7
0	6383	9993.638150373972	6
0	6385	9993.901414367842	5
0	6387	9996.217281654755	6
0	6390	10001.660131896825	5
0	6392	10002.242044621754	6
0	6395	10003.201922179953	5
0	6397	10007.343664523738	6
0	6400	10007.765981559566	7
0	6403	10007.818574442242	8
0	6405	10009.074685027378	9
0	6407	10010.002979319792	8
0	6410	10015.604455166925	7
0	6413	10016.96390900934	6
0	6415	10018.052500206362	5
0	6417	10031.6946524851	4
0	6419	10035.028275133587	3
0	6421	10036.763533322886	2
0	6423	10044.338975615796	3
0	6426	10050.232745668731	4
0	6429	10051.828655995886	3
0	6431	10056.007468980831	4
0	6434	10057.79167945502	5
0	6437	10060.945984100587	4
0	6439	10070.190933351313	3
0	6441	10074.277648426063	4
0	6444	10081.294618892763	5
0	6447	10086.861772081247	6
0	6450	10091.278836923987	5
0	6452	10094.191118218576	4
0	6454	10099.433355688441	5
0	6457	10110.155461747319	6
0	6460	10110.788401018208	7
0	6463	10116.643069049971	8
0	6465	10117.044992900711	9
0	6467	10124.875070099144	10
0	6469	10128.222958614691	9
0	6472	10128.4552384891	10
0	6474	10129.048622036003	11
0	6476	10144.437295105262	10
0	6479	10144.575699287553	9
0	6482	10144.87063190987	8
0	6485	10145.453159272434	9
0	6487	10147.637965084369	10
0	6489	10149.350169020584	9
0	6492	10158.628542972514	10
0	6494	10159.2889190274	9
0	6497	10166.443710068201	10
0	6499	10169.49389295314	9
0	6502	10177.360279181492	10
0	6504	10177.456098112594	11
0	6506	10189.260866236913	12
0	6508	10193.301722707088	13
0	6510	10194.742224232946	14
0	6512	10199.886918262997	15
0	6514	10206.708040747254	16
0	6516	10210.236431407628	15
0	6519	10214.797252558756	16
0	6521	10215.34290249144	15
0	6524	10227.301706562938	14
0	6527	10228.343848525716	15
0	6529	10232.539140526253	16
0	6531	10233.518663732825	17
0	6533	10234.427759826986	16
0	6536	10236.053709392407	17
0	6538	10236.652044583765	16
0	6541	10238.689965568352	15
0	6544	10239.080782442686	14
0	6547	10241.215707645575	15
0	6549	10241.787094109758	14
0	6552	10253.052677944958	15
0	6554	10260.103342436234	14
0	6557	10263.364547881918	15
0	6559	10266.420058663643	16
0	6561	10271.565739089452	17
0	6563	10271.741385429183	16
0	6566	10279.942479705192	15
0	6569	10287.129517126029	14
0	6572	10287.590094114569	13
0	6575	10291.045654335894	12
0	6578	10294.55705182261	11
0	6581	10295.923487825155	10
0	6584	10301.80128389786	9
0	6587	10314.554827043809	8
0	6590	10316.512713245042	7
0	6593	10320.470065238075	6
0	6595	10323.345454994227	5
0	6597	10324.206312651927	4
0	6599	10329.693527078459	3
0	6601	10346.104479437261	4
0	6604	10352.67503127818	5
0	6607	10354.905381119621	6
0	6610	10359.740182847312	7
0	6613	10364.324575430214	6
0	6615	10365.13308616873	5
0	6617	10365.603661353919	4
0	6619	10367.820030386992	5
0	6622	10371.378890905721	6
0	6625	10372.549937009366	7
0	6628	10372.906172299876	8
0	6630	10374.610620955264	7
0	6633	10382.214823193226	6
0	6635	10383.145466796694	5
0	6637	10390.443376119232	6
0	6640	10405.413108386477	5
0	6642	10407.409964466817	4
0	6644	10410.143498975858	3
0	6646	10414.586364033107	4
0	6649	10422.520560727229	5
0	6652	10428.720675435381	6
0	6655	10429.32701354403	5
0	6657	10430.011890776243	4
0	6659	10432.505358870391	5
0	6662	10438.5184464395	4
0	6664	10439.675824204542	3
0	6666	10443.235196781167	4
0	6669	10444.021346762154	3
0	6671	10444.666651307458	4
0	6674	10445.769209662399	5
0	6677	10445.863689939891	4
0	6679	10448.024912546731	3
0	6681	10454.273101987649	4
0	6684	10454.961412778662	3
0	6686	10455.320616336808	4
0	6689	10459.100714007983	5
0	6692	10461.147471833478	6
0	6695	10462.445214852751	5
0	6697	10467.219267936134	4
0	6699	10469.145355124597	5
0	6702	10477.495765653249	6
0	6705	10477.862709882878	5
0	6707	10479.290583335979	4
0	6709	10481.957092037375	3
0	6711	10484.701055757123	2
0	6713	10487.884049021779	3
0	6716	10492.086756934838	2
0	6718	10492.334531707956	3
0	6721	10493.965083187914	4
0	6724	10502.214499029949	3
0	6726	10502.4908064162	2
0	6728	10502.516448863211	3
0	6731	10508.740313002529	4
0	6734	10512.250691708987	3
0	6736	10512.824099296995	4
0	6739	10517.326930273829	3
0	6741	10518.037909528888	4
0	6744	10522.032887771495	5
0	6747	10533.014032478093	4
0	6749	10534.494752658904	3
0	6751	10543.081877149463	4
0	6754	10552.185507470586	3
0	6756	10563.31605800077	2
0	6758	10567.451460497439	3
0	6761	10569.186492210392	4
0	6764	10569.699853983066	5
0	6767	10569.746626109846	4
0	6769	10572.953601861067	5
0	6772	10578.502449580646	6
0	6775	10579.977192256887	7
0	6778	10583.586089413315	6
0	6780	10584.529603974368	5
0	6782	10586.314608282199	4
0	6784	10590.853193713553	5
0	6787	10591.46820065646	4
0	6789	10596.259403112683	3
0	6791	10598.242251512504	4
0	6794	10602.115190157734	5
0	6797	10604.04003575958	6
0	6800	10608.904768590752	7
0	6803	10622.820060190925	8
0	6805	10624.04663301327	7
0	6808	10625.493859403199	6
0	6810	10625.522472164546	7
0	6813	10625.611158509798	8
0	6815	10627.084700656296	7
0	6818	10628.521143528878	8
0	6820	10638.579329790953	7
0	6823	10647.201278103841	6
0	6825	10647.796821272656	7
0	6828	10648.280558971057	8
0	6830	10656.384578716263	9
0	6832	10657.724304973308	8
0	6835	10661.531490136009	9
0	6837	10661.991335553273	10
0	6839	10663.802513819796	9
0	6842	10664.980018218482	8
0	6845	10668.328964107483	9
0	6847	10673.264846535539	8
0	6850	10677.224406736094	7
0	6853	10680.686186397129	6
0	6855	10690.176422303789	5
0	6857	10695.481000051833	6
0	6860	10700.031279441967	5
0	6862	10702.751161259424	6
0	6865	10704.631530514748	5
0	6867	10708.482967152702	6
0	6870	10710.32540503194	5
0	6872	10718.819249034321	6
0	6875	10720.676639104808	7
0	6878	10721.692150939665	6
0	6880	10721.761856713613	7
0	6883	10723.721287843116	6
0	6885	10727.275410972587	7
0	6888	10730.821646676189	6
0	6890	10731.649876798739	5
0	6892	10732.794904073565	6
0	6895	10741.534822163059	7
0	6898	10748.499805962936	8
0	6900	10749.917574145984	9
0	6902	10753.653302532791	8
0	6905	10754.761802286212	9
0	6907	10759.32582460037	8
0	6910	10761.362139207092	9
0	6912	10771.049472609566	8
0	6915	10771.071265422295	7
0	6918	10775.223286674498	6
0	6920	10779.658243712423	5
0	6922	10786.810268915746	6
0	6925	10795.46061841413	5
0	6927	10796.693563410614	6
0	6930	10798.092242581687	7
0	6933	10801.187202430619	6
0	6935	10803.425322059397	7
0	6938	10804.707505607409	6
0	6940	10805.777396460997	7
0	6943	10806.793237136674	8
0	6945	10811.950481238164	7
0	6948	10813.441754833345	8
0	6950	10813.455035048369	7
0	6953	10814.035559175714	6
0	6955	10815.013098535521	5
0	6957	10817.900131168905	6
0	6960	10821.480923200369	7
0	6963	10827.549400018368	6
0	6965	10830.152443718206	7
0	6968	10831.589188247807	6
0	6970	10838.441282883699	5
0	6972	10841.022684910191	6
0	6975	10841.132607743157	7
0	6978	10844.569290530488	6
0	6980	10845.517864931452	5
0	6982	10847.076576087702	6
0	6985	10847.982401959675	5
0	6987	10851.993402705954	4
0	6989	10857.328648733363	3
0	6991	10863.947263332807	4
0	6994	10875.350388142578	5
0	6997	10875.563276920474	6
0	7000	10880.747951662252	5
0	7002	10885.459266613724	6
0	7005	10893.453954050881	5
0	7007	10894.173179341392	4
0	7009	10899.086275598536	3
0	7011	10901.910516613242	2
0	7013	10902.534387120306	1
0	7015	10903.90048297237	2
0	7018	10928.351898389252	3
0	7021	10930.341673631808	4
0	7024	10934.207009738895	5
0	7027	10938.779636297648	6
0	7030	10939.940650948202	7
0	7033	10940.451609629952	6
0	7035	10947.3803431169	7
0	7038	10952.64419415206	6
0	7040	10958.219541801513	7
0	7043	10959.964566700495	6
0	7045	10960.804374858576	5
0	7047	10964.725214889234	4
0	7049	10965.634221857347	3
0	7051	10978.197342476528	2
0	7053	10982.372418861562	1
0	7055	10984.214589386118	0
0	7057	10993.305151175045	1
0	7060	10994.627844750264	2
0	7063	11005.090046835069	3
0	7066	11006.427153756524	4
0	7069	11009.041241869863	3
0	7071	11015.113110077961	2
0	7073	11016.973799999039	3
0	7076	11017.93504172771	4
0	7079	11027.557674556456	5
0	7082	11028.72963118069	4
0	7084	11037.301472413244	3
0	7086	11050.711697670249	4
0	7089	11060.200713453098	3
0	7091	11080.436110824599	2
0	7093	11093.551122668677	1
0	7095	11098.130736151323	2
0	7098	11101.498697536126	1
0	7100	11154.820333223407	0
0	7102	11159.161707260855	1
0	7105	11168.755325185267	0
0	7107	11190.632436468512	1
0	7110	11193.365187662499	0
0	7112	11195.76766188996	1
0	7115	11201.367693999505	2
0	7118	11203.59013635687	1
0	7120	11203.972231651348	0
0	7122	11215.240301384874	1
0	7125	11216.708141034116	2
0	7128	11221.230328032093	3
0	7131	11222.706593103327	4
0	7134	11223.874258214263	3
0	7136	11232.852791867391	4
0	7139	11247.688889389387	3
0	7141	11257.434936654631	4
0	7144	11274.003030422692	3
0	7146	11286.911662756765	4
0	7149	11289.141865073307	3
0	7151	11289.246370320255	4
0	7154	11307.729551994072	5
0	7157	11309.663313897963	6
0	7160	11312.312248143611	5
0	7162	11317.766055421911	4
0	7164	11318.938962546426	3
0	7166	11341.52606381281	4
0	7169	11350.443761454737	5
0	7172	11352.82903609958	6
0	7175	11360.542355762385	7
0	7178	11362.132908196644	8
0	7180	11364.534902403629	7
0	7183	11364.959962496629	8
0	7185	11369.504963210638	7
0	7188	11370.838647115154	6
0	7190	11371.39327720285	5
0	7192	11373.940039720391	4
0	7194	11380.817907420466	3
0	7196	11386.02998776507	4
0	7199	11393.994754713988	3
0	7201	11395.745032569852	4
0	7204	11404.608315187603	3
0	7206	11405.634919859224	4
0	7209	11409.763429394182	5
0	7212	11413.461618479312	4
0	7214	11418.226582493324	3
0	7216	11423.706384659304	4
0	7219	11425.980262830742	3
0	7221	11426.337385110168	2
0	7223	11446.151833838094	1
0	7225	11449.882674191297	2
0	7228	11451.279890460105	1
0	7230	11458.498011471612	2
0	7233	11459.111127115055	3
0	7236	11460.492990153225	2
0	7238	11464.979525765159	3
0	7241	11473.679971643089	4
0	7244	11478.605783353369	3
0	7246	11479.975101853767	4
0	7249	11485.28469697892	5
0	7252	11491.692892389094	6
0	7255	11503.195912164151	5
0	7257	11506.840547251933	4
0	7259	11510.548640243031	5
0	7262	11515.850011668828	6
0	7265	11519.022878102552	7
0	7268	11519.450184284989	6
0	7270	11524.988379538046	5
0	7272	11530.62869574916	6
0	7275	11533.543501356677	7
0	7278	11536.301580849459	8
0	7280	11539.059780689487	7
0	7283	11543.323809290892	6
0	7285	11555.03364005074	7
0	7288	11558.40350967912	6
0	7290	11563.863850045837	7
0	7293	11565.239655426481	6
0	7295	11566.117845518122	5
0	7297	11567.907361151709	4
0	7299	11576.628518382556	3
0	7301	11583.765726143176	2
0	7303	11583.859448225304	3
0	7306	11589.588804173539	4
0	7309	11589.611504868134	3
0	7311	11601.430468952976	4
0	7314	11605.67651343685	5
0	7317	11607.925309756857	6
0	7320	11609.93286430439	7
0	7323	11611.255528909615	8
0	7325	11612.467182685497	9
0	7327	11614.013163655191	8
0	7330	11617.419429937895	7
0	7333	11621.32919215724	8
0	7335	11623.058388191315	9
0	7337	11625.228835964049	8
0	7340	11625.943150700439	9
0	7342	11627.823788683179	8
0	7345	11633.931328124356	7
0	7348	11634.665455944755	8
0	7350	11637.04000504698	7
0	7353	11643.463413232491	6
0	7355	11643.509231852902	5
0	7357	11646.960734651015	6
0	7360	11656.131573629491	5
0	7362	11660.187763154312	6
0	7365	11661.782330507812	5
0	7367	11664.058391787247	6
0	7370	11664.5476061229	7
0	7373	11683.557347466328	8
0	7375	11685.586040943565	7
0	7378	11692.956228078933	8
0	7380	11695.400131016346	9
0	7382	11701.25621728312	8
0	7385	11702.08396818944	7
0	7388	11705.435772735196	8
0	7390	11707.926327672199	7
0	7393	11716.332385893553	6
0	7395	11717.589859981634	5
0	7397	11721.812670045222	4
0	7399	11723.916624343688	5
0	7402	11727.335473780923	4
0	7404	11740.465870555595	5
0	7407	11741.48039382077	4
0	7409	11747.702789319441	5
0	7412	11757.588799220471	6
0	7415	11757.708820313064	5
0	7417	11759.095173642412	6
0	7420	11759.901219040766	7
0	7423	11763.049291791723	8
0	7425	11771.000086452281	9
0	7427	11773.322430274112	8
0	7430	11776.535546864537	7
0	7433	11786.110444725278	6
0	7435	11786.287938734816	7
0	7438	11796.332045103088	8
0	7440	11797.789463413638	7
0	7443	11804.438623177291	6
0	7445	11806.243790368393	5
0	7447	11809.054061138327	6
0	7450	11812.056026438115	7
0	7453	11815.469882046975	6
0	7455	11817.299902175775	5
0	7457	11825.131866271409	6
0	7460	11833.069733153295	5
0	7462	11834.389324955197	4
0	7464	11839.34502790179	5
0	7467	11843.58790147459	4
0	7469	11850.466653240671	3
0	7471	11852.588224105954	2
0	7473	11856.299663079949	3
0	7476	11879.394471092811	4
0	7479	11884.489664329244	5
0	7482	11899.065501672331	4
0	7484	11901.429551705193	5
0	7487	11911.591613458827	6
0	7490	11911.945584483866	5
0	7492	11918.792018613261	4
0	7494	11918.970303997192	5
0	7497	11920.555590651438	4
0	7499	11922.03389984811	3
0	7501	11931.751432794904	2
0	7503	11945.748320596403	1
0	7505	11965.433250781652	2
0	7508	11966.967383313004	3
0	7511	11972.423349067161	2
0	7513	11989.221334076608	1
0	7515	11990.213807417716	2
0	7518	11993.05587448736	3
0	7521	11996.236144270416	4
0	7524	12001.702632257002	5
0	7527	12002.24162421183	6
0	7530	12005.82001174687	5
0	7532	12008.937365525283	6
0	7535	12010.611232232732	5
0	7537	12013.736497372363	4
0	7539	12017.146139294712	5
0	7542	12019.809084997369	4
0	7544	12023.204718667556	3
0	7546	12025.406412797594	2
0	7548	12032.696695166672	3
0	7551	12033.397409735323	2
0	7553	12036.897706965513	3
0	7556	12045.283386895204	4
0	7559	12046.785759463614	5
0	7562	12047.17761273495	4
0	7564	12055.946718996449	5
0	7567	12056.144948610353	4
0	7569	12064.961714103305	3
0	7571	12065.091173550949	4
0	7574	12077.369909534833	5
0	7577	12077.745075918224	6
0	7580	12077.98484875808	5
0	7582	12082.828919787433	4
0	7584	12086.71911330741	5
0	7587	12090.355627024326	4
0	7589	12108.308976307259	3
0	7591	12109.366590237231	4
0	7594	12111.063384750613	5
0	7597	12111.559457759558	6
0	7600	12115.56071402416	5
0	7602	12123.101809880274	6
0	7605	12125.084088830692	5
0	7607	12136.591045318723	4
0	7609	12137.791224123661	3
0	7611	12139.121634264234	4
0	7614	12147.932772592558	5
0	7617	12154.385591569643	6
0	7620	12156.141015248759	7
0	7623	12156.769716657325	6
0	7625	12167.165130315881	7
0	7628	12169.139296552652	6
0	7630	12169.910717630294	5
0	7632	12170.026650426982	6
0	7635	12174.174679585716	7
0	7638	12182.302340868917	6
0	7640	12186.826653508808	5
0	7642	12192.102777356825	6
0	7645	12192.539128164649	5
0	7647	12193.073151854059	4
0	7649	12196.797470765083	5
0	7652	12196.989372005244	4
0	7654	12198.677952572734	3
0	7656	12200.739923477032	4
0	7659	12202.173420136111	3
0	7661	12206.31292902963	2
0	7663	12206.449926253704	1
0	7665	12217.508202000727	2
0	7668	12229.137437578181	3
0	7671	12231.047135310991	4
0	7674	12239.206494829156	3
0	7676	12239.778533502075	4
0	7679	12249.381793566658	5
0	7682	12251.436779112124	6
0	7685	12252.813283431299	5
0	7687	12256.505847657716	4
0	7689	12260.721144321138	3
0	7691	12261.284700348415	4
0	7694	12265.213683482629	3
0	7696	12268.286414423727	2
0	7698	12278.362571300109	3
0	7701	12278.862377825638	4
0	7704	12285.952377815449	5
0	7707	12286.220655407749	4
0	7709	12294.072346826116	3
0	7711	12301.415431766088	4
0	7714	12301.90904943711	5
0	7717	12305.01250713064	6
0	7720	12308.497670868384	5
0	7722	12310.327659162751	6
0	7725	12310.699161146224	7
0	7728	12311.027187923184	6
0	7730	12312.868688002895	5
0	7732	12313.911469744507	4
0	7734	12314.769903249172	3
0	7736	12317.04559195074	4
0	7739	12318.622792378454	3
0	7741	12333.680801293129	4
0	7744	12340.467525483953	5
0	7747	12343.513922963302	6
0	7750	12346.623806971064	7
0	7753	12347.684918886731	8
0	7755	12351.315199857881	7
0	7758	12353.219691793343	6
0	7760	12353.606830840106	7
0	7763	12353.77563214348	8
0	7765	12354.147947504863	9
0	7767	12359.880815545069	10
0	7769	12363.686912749856	11
0	7771	12364.560869316003	12
0	7773	12367.395980459926	13
0	7775	12371.76846803907	14
0	7777	12377.644168799993	15
0	7779	12380.149991433959	14
0	7782	12387.851473282816	13
0	7785	12389.120550798081	14
0	7787	12389.571458661742	15
0	7789	12390.522667921555	16
0	7791	12394.665592173189	17
0	7793	12396.562178523071	16
0	7796	12397.499634792716	15
0	7799	12398.631715288318	16
0	7801	12407.594609498335	15
0	7804	12416.200614326105	14
0	7807	12420.699687459159	13
0	7810	12429.083147072324	14
0	7812	12429.552918027408	13
0	7815	12431.942544322354	14
0	7817	12432.655614482774	15
0	7819	12433.530875867514	16
0	7821	12442.615955094529	17
0	7823	12444.378538329842	18
0	7825	12445.289454982783	17
0	7828	12447.01637954341	18
0	7830	12447.502115200625	19
0	7832	12451.222683219783	18
0	7835	12453.366997247776	17
0	7838	12454.00970394158	16
0	7841	12454.655415674554	15
0	7844	12461.974932296649	16
0	7846	12462.379035479125	15
0	7849	12468.016559989107	16
0	7851	12469.856588642263	17
0	7853	12471.016022028455	18
0	7855	12474.541504472381	17
0	7858	12475.512552244239	16
0	7861	12479.255864089596	17
0	7863	12484.093192964068	16
0	7866	12484.187748345115	17
0	7868	12485.959738507034	16
0	7871	12496.90991115724	15
0	7874	12498.632954519419	14
0	7877	12499.606401920564	15
0	7879	12504.936788559359	14
0	7882	12506.111051447484	13
0	7885	12507.938065766582	12
0	7888	12511.160512659072	11
0	7891	12511.199163214658	10
0	7894	12513.059929917975	11
0	7896	12514.052540868701	10
0	7899	12516.061833882036	9
0	7902	12517.524896256614	8
0	7905	12517.732774257408	9
0	7907	12524.632808060118	8
0	7910	12524.681822596403	7
0	7913	12526.105977589037	6
0	7915	12532.511362635185	5
0	7917	12538.257150458173	6
0	7920	12541.258470326596	7
0	7923	12541.499676782899	8
0	7925	12543.98363936314	9
0	7927	12548.711249379391	8
0	7930	12561.322025374281	7
0	7933	12567.353943205072	6
0	7935	12568.675992486742	7
0	7938	12570.589190026497	6
0	7940	12572.387327890533	7
0	7943	12573.19279467885	6
0	7945	12574.774643046907	5
0	7947	12579.195317058837	4
0	7949	12582.587780744142	3
0	7951	12586.065015535943	4
0	7954	12589.76692133953	5
0	7957	12593.201032670427	6
0	7960	12593.213410294036	7
0	7963	12596.935257813254	6
0	7965	12597.384949997359	5
0	7967	12597.823800306649	4
0	7969	12603.146779301399	3
0	7971	12615.511561424737	4
0	7974	12618.744675474941	3
0	7976	12623.199302835855	4
0	7979	12628.955669559152	3
0	7981	12631.954808619813	2
0	7983	12633.33003162468	3
0	7986	12635.384249115231	2
0	7988	12637.523599331221	3
0	7991	12644.93378953128	4
0	7994	12650.114605914779	3
0	7996	12652.758492758519	4
0	7999	12656.313582954618	5
0	8002	12660.506412347401	4
[...]
1	7285	11555.03364005074	0
1	7288	11558.40350967912	0
1	7290	11563.863850045837	0
1	7293	11565.239655426481	0
1	7295	11566.117845518122	0
1	7297	11567.907361151709	0
1	7299	11576.628518382556	0
1	7301	11583.765726143176	0
1	7303	11583.859448225304	0
1	7306	11589.588804173539	0
1	7309	11589.611504868134	0
1	7311	11601.430468952976	0
1	7314	11605.67651343685	0
1	7317	11607.925309756857	0
1	7320	11609.93286430439	0
1	7323	11611.255528909615	1
1	7325	11612.467182685497	2
1	7327	11614.013163655191	1
1	7330	11617.419429937895	0
1	7333	11621.32919215724	1
1	7335	11623.058388191315	2
1	7337	11625.228835964049	1
1	7340	11625.943150700439	2
1	7342	11627.823788683179	1
1	7345	11633.931328124356	0
1	7348	11634.665455944755	1
1	7350	11637.04000504698	0
1	7353	11643.463413232491	0
1	7355	11643.509231852902	0
1	7357	11646.960734651015	0
1	7360	11656.131573629491	0
1	7362	11660.187763154312	0
1	7365	11661.782330507812	0
1	7367	11664.058391787247	0
1	7370	11664.5476061229	0
1	7373	11683.557347466328	1
1	7375	11685.586040943565	0
1	7378	11692.956228078933	1
1	7380	11695.400131016346	2
1	7382	11701.25621728312	1
1	7385	11702.08396818944	0
1	7388	11705.435772735196	1
1	7390	11707.926327672199	0
1	7393	11716.332385893553	0
1	7395	11717.589859981634	0
1	7397	11721.812670045222	0
1	7399	11723.916624343688	0
1	7402	11727.335473780923	0
1	7404	11740.465870555595	0
1	7407	11741.48039382077	0
1	7409	11747.702789319441	0
1	7412	11757.588799220471	0
1	7415	11757.708820313064	0
1	7417	11759.095173642412	0
1	7420	11759.901219040766	0
1	7423	11763.049291791723	1
1	7425	11771.000086452281	2
1	7427	11773.322430274112	1
1	7430	11776.535546864537	0
1	7433	11786.110444725278	0
1	7435	11786.287938734816	0
1	7438	11796.332045103088	1
1	7440	11797.789463413638	0
1	7443	11804.438623177291	0
1	7445	11806.243790368393	0
1	7447	11809.054061138327	0
1	7450	11812.056026438115	0
1	7453	11815.469882046975	0
1	7455	11817.299902175775	0
1	7457	11825.131866271409	0
1	7460	11833.069733153295	0
1	7462	11834.389324955197	0
1	7464	11839.34502790179	0
1	7467	11843.58790147459	0
1	7469	11850.466653240671	0
1	7471	11852.588224105954	0
1	7473	11856.299663079949	0
1	7476	11879.394471092811	0
1	7479	11884.489664329244	0
1	7482	11899.065501672331	0
1	7484	11901.429551705193	0
1	7487	11911.591613458827	0
1	7490	11911.945584483866	0
1	7492	11918.792018613261	0
1	7494	11918.970303997192	0
1	7497	11920.555590651438	0
1	7499	11922.03389984811	0
1	7501	11931.751432794904	0
1	7503	11945.748320596403	0
1	7505	11965.433250781652	0
1	7508	11966.967383313004	0
1	7511	11972.423349067161	0
1	7513	11989.221334076608	0
1	7515	11990.213807417716	0
1	7518	11993.05587448736	0
1	7521	11996.236144270416	0
1	7524	12001.702632257002	0
1	7527	12002.24162421183	0
1	7530	12005.82001174687	0
1	7532	12008.937365525283	0
1	7535	12010.611232232732	0
1	7537	12013.736497372363	0
1	7539	12017.146139294712	0
1	7542	12019.809084997369	0
1	7544	12023.204718667556	0
1	7546	12025.406412797594	0
1	7548	12032.696695166672	0
1	7551	12033.397409735323	0
1	7553	12036.897706965513	0
1	7556	12045.283386895204	0
1	7559	12046.785759463614	0
1	7562	12047.17761273495	0
1	7564	12055.946718996449	0
1	7567	12056.144948610353	0
1	7569	12064.961714103305	0
1	7571	12065.091173550949	0
1	7574	12077.369909534833	0
1	7577	12077.745075918224	0
1	7580	12077.98484875808	0
1	7582	12082.828919787433	0
1	7584	12086.71911330741	0
1	7587	12090.355627024326	0
1	7589	12108.308976307259	0
1	7591	12109.366590237231	0
1	7594	12111.063384750613	0
1	7597	12111.559457759558	0
1	7600	12115.56071402416	0
1	7602	12123.101809880274	0
1	7605	12125.084088830692	0
1	7607	12136.591045318723	0
1	7609	12137.791224123661	0
1	7611	12139.121634264234	0
1	7614	12147.932772592558	0
1	7617	12154.385591569643	0
1	7620	12156.141015248759	0
1	7623	12156.769716657325	0
1	7625	12167.165130315881	0
1	7628	12169.139296552652	0
1	7630	12169.910717630294	0
1	7632	12170.026650426982	0
1	7635	12174.174679585716	0
1	7638	12182.302340868917	0
1	7640	12186.826653508808	0
1	7642	12192.102777356825	0
1	7645	12192.539128164649	0
1	7647	12193.073151854059	0
1	7649	12196.797470765083	0
1	7652	12196.989372005244	0
1	7654	12198.677952572734	0
1	7656	12200.739923477032	0
1	7659	12202.173420136111	0
1	7661	12206.31292902963	0
1	7663	12206.449926253704	0
1	7665	12217.508202000727	0
1	7668	12229.137437578181	0
1	7671	12231.047135310991	0
1	7674	12239.206494829156	0
1	7676	12239.778533502075	0
1	7679	12249.381793566658	0
1	7682	12251.436779112124	0
1	7685	12252.813283431299	0
1	7687	12256.505847657716	0
1	7689	12260.721144321138	0
1	7691	12261.284700348415	0
1	7694	12265.213683482629	0
1	7696	12268.286414423727	0
1	7698	12278.362571300109	0
1	7701	12278.862377825638	0
1	7704	12285.952377815449	0
1	7707	12286.220655407749	0
1	7709	12294.072346826116	0
1	7711	12301.415431766088	0
1	7714	12301.90904943711	0
1	7717	12305.01250713064	0
1	7720	12308.497670868384	0
1	7722	12310.327659162751	0
1	7725	12310.699161146224	0
1	7728	12311.027187923184	0
1	7730	12312.868688002895	0
1	7732	12313.911469744507	0
1	7734	12314.769903249172	0
1	7736	12317.04559195074	0
1	7739	12318.622792378454	0
1	7741	12333.680801293129	0
1	7744	12340.467525483953	0
1	7747	12343.513922963302	0
1	7750	12346.623806971064	0
1	7753	12347.684918886731	1
1	7755	12351.315199857881	0
1	7758	12353.219691793343	0
1	7760	12353.606830840106	0
1	7763	12353.77563214348	1
1	7765	12354.147947504863	2
1	7767	12359.880815545069	3
1	7769	12363.686912749856	4
1	7771	12364.560869316003	5
1	7773	12367.395980459926	6
1	7775	12371.76846803907	7
1	7777	12377.644168799993	8
1	7779	12380.149991433959	7
1	7782	12387.851473282816	6
1	7785	12389.120550798081	7
1	7787	12389.571458661742	8
1	7789	12390.522667921555	9
1	7791	12394.665592173189	10
1	7793	12396.562178523071	9
1	7796	12397.499634792716	8
1	7799	12398.631715288318	9
1	7801	12407.594609498335	8
1	7804	12416.200614326105	7
1	7807	12420.699687459159	6
1	7810	12429.083147072324	7
1	7812	12429.552918027408	6
1	7815	12431.942544322354	7
1	7817	12432.655614482774	8
1	7819	12433.530875867514	9
1	7821	12442.615955094529	10
1	7823	12444.378538329842	11
1	7825	12445.289454982783	10
1	7828	12447.01637954341	11
1	7830	12447.502115200625	12
1	7832	12451.222683219783	11
1	7835	12453.366997247776	10
1	7838	12454.00970394158	9
1	7841	12454.655415674554	8
1	7844	12461.974932296649	9
1	7846	12462.379035479125	8
1	7849	12468.016559989107	9
1	7851	12469.856588642263	10
1	7853	12471.016022028455	11
1	7855	12474.541504472381	10
1	7858	12475.512552244239	9
1	7861	12479.255864089596	10
1	7863	12484.093192964068	9
1	7866	12484.187748345115	10
1	7868	12485.959738507034	9
1	7871	12496.90991115724	8
1	7874	12498.632954519419	7
1	7877	12499.606401920564	8
1	7879	12504.936788559359	7
1	7882	12506.111051447484	6
1	7885	12507.938065766582	5
1	7888	12511.160512659072	4
1	7891	12511.199163214658	3
1	7894	12513.059929917975	4
1	7896	12514.052540868701	3
1	7899	12516.061833882036	2
1	7902	12517.524896256614	1
1	7905	12517.732774257408	2
1	7907	12524.632808060118	1
1	7910	12524.681822596403	0
1	7913	12526.105977589037	0
1	7915	12532.511362635185	0
1	7917	12538.257150458173	0
1	7920	12541.258470326596	0
1	7923	12541.499676782899	1
1	7925	12543.98363936314	2
1	7927	12548.711249379391	1
1	7930	12561.322025374281	0
1	7933	12567.353943205072	0
1	7935	12568.675992486742	0
1	7938	12570.589190026497	0
1	7940	12572.387327890533	0
1	7943	12573.19279467885	0
1	7945	12574.774643046907	0
1	7947	12579.195317058837	0
1	7949	12582.587780744142	0
1	7951	12586.065015535943	0
1	7954	12589.76692133953	0
1	7957	12593.201032670427	0
1	7960	12593.213410294036	0
1	7963	12596.935257813254	0
1	7965	12597.384949997359	0
1	7967	12597.823800306649	0
1	7969	12603.146779301399	0
1	7971	12615.511561424737	0
1	7974	12618.744675474941	0
1	7976	12623.199302835855	0
1	7979	12628.955669559152	0
1	7981	12631.954808619813	0
1	7983	12633.33003162468	0
1	7986	12635.384249115231	0
1	7988	12637.523599331221	0
1	7991	12644.93378953128	0
1	7994	12650.114605914779	0
1	7996	12652.758492758519	0
1	7999	12656.313582954618	0
1	8002	12660.506412347401	0
1	8004	12666.952267082942	0
1	8007	12670.887590901279	0
1	8010	12672.380988607019	0
1	8012	12675.579622137145	0
1	8014	12679.694340731083	0
1	8017	12681.952010998802	0
1	8020	12684.049658521303	0
1	8023	12687.743678103559	0
1	8025	12688.821085691602	0
1	8028	12693.660393726879	0
1	8030	12699.767146923452	0
1	8033	12700.021687989273	0
1	8035	12702.446093357542	0
1	8038	12706.728688914414	0
1	8040	12717.285221166099	0
1	8042	12721.386845659114	0
1	8045	12724.328204492371	0
1	8047	12726.418878570761	0
1	8050	12730.458272143733	0
1	8053	12732.716925468413	1
1	8055	12732.81068035839	0
1	8058	12734.322669649122	0
1	8060	12735.625287931489	0
1	8062	12738.182342741466	0
1	8064	12743.48134111621	0
1	8067	12744.621825612833	0
1	8070	12744.650019698208	0
1	8073	12756.190623811932	0
1	8075	12760.146878895827	0
1	8078	12760.526724523324	0
1	8080	12771.020727707409	0
1	8082	12779.626434936851	0
1	8084	12783.75463431156	0
1	8086	12784.564973475048	0
1	8088	12794.083594277497	0
1	8091	12800.836303057892	0
1	8093	12819.410996036604	0
1	8096	12824.061875073686	0
1	8099	12826.245327485288	0
1	8101	12832.58462298852	0
1	8103	12841.918427465237	0
1	8105	12848.478712636877	0
1	8108	12849.546732327871	0
1	8111	12851.951514595533	0
1	8113	12856.846381151772	0
1	8115	12863.871773176231	0
1	8118	12865.090649761705	0
1	8121	12871.193189670298	0
1	8124	12879.483925228162	0
1	8127	12882.929824669533	0
1	8129	12885.395377816662	0
1	8132	12889.86998581445	0
1	8135	12895.30911160947	0
1	8138	12905.693574626493	0
1	8140	12910.388682678244	0
1	8142	12911.975007458255	0
1	8145	12913.8380449609	0
1	8147	12918.551662333833	0
1	8149	12919.064111333349	0
1	8152	12919.820989757749	0
1	8154	12924.650950441304	0
1	8157	12928.513984819217	0
1	8159	12930.888360301604	0
1	8162	12943.228875013522	0
1	8165	12945.12644289172	0
1	8167	12947.801912198734	0
1	8169	12957.026277751991	0
1	8171	12964.476325794627	0
1	8174	12969.38630119159	0
1	8176	12976.066121636226	0
1	8179	12978.656681730913	0
1	8181	12979.698118672647	0
1	8184	12980.607069840555	0
1	8186	12987.331517626853	0
1	8188	12994.797609653898	0
1	8191	12999.748479673449	0
1	8193	13010.567197947161	0
1	8196	13011.224165584443	0
1	8198	13020.562427834803	0
1	8200	13027.740131117024	0
1	8203	13030.005641296719	0
1	8206	13034.603143379936	0
1	8209	13040.301868308799	0
1	8212	13040.81167723624	0
1	8214	13050.152336189658	0
1	8216	13052.155313766698	0
1	8219	13053.182908268803	0
1	8221	13057.828967441981	0
1	8224	13058.168224133443	0
1	8226	13063.254685067163	0
1	8229	13063.290142410696	0
1	8231	13063.403324266438	0
1	8233	13065.64856466958	0
1	8236	13067.311890462199	0
1	8239	13069.894411557833	0
1	8241	13073.071596411337	0
1	8243	13073.809448735854	0
1	8246	13080.893408450482	0
1	8248	13087.622369722484	0
1	8251	13098.607588771154	0
1	8254	13104.395296180081	0
1	8257	13117.575682500695	0
1	8260	13123.217374890226	0
1	8262	13123.689450158975	0
1	8265	13125.538155639576	0
1	8268	13128.945030230925	1
1	8270	13130.333016701274	0
1	8273	13135.348962961866	1
1	8275	13135.703642609312	2
1	8277	13136.258002864002	1
1	8280	13138.39864333338	2
1	8282	13139.722424074094	1
1	8285	13147.925988343305	2
1	8287	13152.339848854734	1
1	8290	13155.595438001101	0
1	8293	13159.10750984504	0
1	8295	13160.571365943436	0
1	8297	13162.888925408119	0
1	8299	13169.373738848178	0
1	8301	13170.373853056766	0
1	8304	13171.080581562474	0
1	8307	13173.392335936118	0
1	8310	13175.389873793593	0
1	8312	13176.817369093996	0
1	8314	13177.732370161563	0
1	8317	13177.884385685231	0
1	8320	13180.99849673503	0
1	8322	13182.620300443781	0
1	8324	13184.423107095905	0
1	8326	13185.184377693252	0
1	8329	13187.007722563316	0
1	8332	13191.080268795639	0
1	8335	13192.547138810742	0
1	8338	13196.893479668171	1
1	8340	13198.934773719326	0
1	8343	13201.190861479631	0
1	8345	13201.397953023312	0
1	8348	13204.330863673788	0
1	8350	13207.888831240588	0
1	8353	13208.012866870053	0
1	8355	13209.989146578355	0
1	8357	13210.734084771321	0
1	8359	13214.31819135866	0
1	8362	13216.170208572384	0
1	8365	13217.568639019334	0
1	8367	13220.840097741057	0
1	8370	13224.543610311998	0
1	8372	13225.736003771239	0
1	8375	13227.488642535912	0
1	8377	13228.053625424797	0
1	8379	13233.180533986672	0
1	8382	13236.259031155797	0
1	8385	13237.870210464174	0
1	8388	13244.408757638694	0
1	8390	13244.669418558526	0
1	8392	13249.842237978937	0
1	8394	13265.878071515936	0
1	8396	13267.854710459329	0
1	8399	13272.568215903274	0
1	8401	13273.017604554153	0
1	8404	13275.121895166676	0
1	8407	13275.667446070067	0
1	8409	13279.837329608978	0
1	8411	13279.946899134653	0
1	8413	13283.544806279293	0
1	8416	13290.925150562634	0
1	8419	13305.899915430179	0
1	8422	13317.746364845515	0
1	8424	13320.669179731672	0
1	8426	13327.566505631604	0
1	8429	13331.612645135681	0
1	8431	13333.502523218874	0
1	8434	13344.954256169987	0
1	8436	13346.295235538163	0
1	8438	13350.446001494377	0
1	8440	13354.212349918007	0
1	8443	13357.489569534156	0
1	8446	13359.785322775758	0
1	8449	13364.985863479324	0
1	8451	13377.992802205128	0
1	8454	13383.296199209378	0
1	8457	13392.096340081126	0
1	8459	13392.366172656158	0
1	8462	13396.189505952443	0
1	8465	13397.260570363155	0
1	8468	13398.875950387186	0
1	8470	13399.849724419638	0
1	8472	13405.167466629202	0
1	8475	13407.071961520796	0
1	8477	13412.844740600537	0
1	8479	13413.366396489472	0
1	8481	13413.645188279151	0
1	8484	13415.631957557578	0
1	8487	13416.588952856774	0
1	8489	13418.280357428972	0
1	8491	13423.471107478486	0
1	8494	13426.770982430429	0
1	8497	13440.896632957075	0
1	8500	13443.597151866129	0
1	8502	13447.802550398541	0
1	8505	13454.220859934434	0
1	8508	13456.36755303134	0
1	8510	13461.526627086767	0
1	8513	13463.673879091142	0
1	8515	13472.14554210023	0
1	8518	13476.563917840793	1
1	8520	13479.178125118398	0
1	8523	13479.710538842535	0
1	8525	13482.11168488104	0
1	8527	13484.787081408207	0
1	8529	13495.464394616368	0
1	8531	13501.22037660816	0
1	8534	13507.755228251723	0
1	8536	13517.853198955152	0
1	8538	13523.166697704927	0
1	8541	13534.12677522151	0
1	8544	13546.040899624162	0
1	8547	13557.579082567212	0
1	8550	13558.024945845299	0
1	8553	13558.131365690502	0
1	8555	13558.796403570102	0
1	8557	13562.085022112199	0
1	8560	13569.669118263514	0
1	8562	13570.580878079906	0
1	8564	13573.31762446475	0
1	8567	13574.090736890055	0
1	8569	13574.385038417365	0
1	8571	13582.095683481502	0
1	8574	13586.090451265695	0
1	8576	13600.032699406433	0
1	8579	13607.9173894189	0
1	8582	13609.169417268923	0
1	8584	13610.843628499035	0
1	8586	13616.335810764881	0
1	8588	13625.992450027068	0
1	8590	13626.390058958158	0
1	8593	13631.239891932165	0
1	8596	13633.566316345844	0
1	8599	13636.750968245158	0
1	8601	13639.224458596445	0
1	8603	13641.346014080107	0
1	8606	13641.7722591199	0
1	8609	13683.774891529521	0
1	8612	13686.902208888678	0
1	8615	13690.09514002638	0
1	8618	13691.072499240491	0
1	8620	13691.456345885972	0
1	8622	13695.966802948249	0
1	8624	13700.222275185234	0
1	8627	13711.452831888944	0
1	8630	13713.371945464033	0
1	8633	13718.078561823857	0
1	8635	13731.787307397673	0
1	8638	13734.304611203413	0
1	8640	13739.992016202329	0
1	8643	13741.017551151218	1
1	8645	13741.43658388667	0
1	8648	13745.623520213547	0
1	8650	13745.781832014195	0
1	8652	13748.151074196554	0
1	8654	13758.535890026056	0
1	8657	13760.180227092549	0
1	8659	13761.902372233915	0
1	8661	13764.870012693898	0
1	8664	13769.87152920302	0
1	8667	13770.590553414755	0
1	8670	13775.397618699763	0
1	8673	13776.301997030494	0
1	8675	13777.538574897615	0
1	8677	13779.122409646821	0
1	8680	13787.577835948098	0
1	8682	13789.885529584357	0
1	8684	13792.803948450421	0
1	8686	13798.657684481997	0
1	8688	13802.268492003479	0
1	8691	13802.757295716929	0
1	8693	13807.83525901371	0
1	8695	13816.254947089117	0
1	8698	13816.874466768111	0
1	8700	13828.39784831303	0
1	8703	13830.003327722409	0
1	8706	13833.035850554242	0
1	8709	13833.267494785552	0
1	8711	13839.080378931451	0
1	8713	13839.967014399695	0
1	8715	13843.333127084171	0
1	8718	13852.214570451961	0
1	8721	13859.810641333026	0
1	8723	13865.235317273793	0
1	8725	13874.16863981342	0
1	8728	13884.801981103361	0
1	8730	13899.809457957786	0
1	8733	13903.382696968787	0
1	8735	13906.27400408652	0
1	8738	13907.739468213213	0
1	8741	13919.008102226168	0
1	8743	13920.648143560952	0
1	8746	13925.41562717572	0
1	8749	13928.564959736678	0
1	8752	13931.15343011024	0
1	8755	13937.254516323116	0
1	8758	13937.942921468633	0
1	8760	13940.546968205034	0
1	8763	13945.77542919865	1
1	8765	13946.028735146961	0
1	8768	13949.485828442846	0
1	8770	13952.136974428889	0
1	8772	13959.743942403982	0
1	8774	13962.468671292593	0
1	8776	13973.905120397762	0
1	8779	13977.106353696472	0
1	8782	13991.945809982231	0
1	8785	13994.246163686411	0
1	8787	13994.853307377662	0
1	8789	13994.86765981608	0
1	8791	14007.696393351388	0
1	8794	14011.929983309778	0
1	8796	14024.846188706479	0
1	8799	14027.500302756213	0
1	8802	14031.099677976426	0
1	8804	14031.317549569115	0
1	8807	14031.972464563286	0
1	8809	14033.534336021631	0
1	8812	14033.546312927372	0
1	8814	14033.785402745832	0
1	8817	14036.865769592045	0
1	8820	14038.712173670593	0
1	8823	14043.763721158082	1
1	8825	14043.811743791407	0
1	8828	14047.844277365021	0
1	8830	14049.536550206343	0
1	8832	14050.377910484006	0
1	8835	14055.363659130593	0
1	8837	14056.645706819426	0
1	8839	14057.166067230385	0
1	8841	14062.019682295819	0
1	8844	14065.517886850852	0
1	8846	14067.953142524606	0
1	8849	14075.430858866169	0
1	8852	14084.797762872519	0
1	8855	14085.637718471385	0
1	8858	14091.167899106452	1
1	8860	14091.994033026946	0
1	8863	14092.069968350966	0
1	8865	14100.092881690559	0
1	8868	14100.612277504676	0
1	8870	14101.425045508155	0
1	8873	14103.015625680293	0
1	8875	14104.2672914887	0
1	8878	14105.239120100369	0
1	8880	14113.847620210478	0
1	8883	14115.153303659252	1
1	8885	14117.681830030728	0
1	8888	14118.195272750319	1
1	8890	14118.316143925955	2
1	8892	14119.769228126404	3
1	8894	14120.373796628917	2
1	8897	14125.943378487719	3
1	8899	14127.455381339391	4
1	8901	14129.917460461674	3
1	8904	14133.396184061144	4
1	8906	14133.837651320679	3
1	8909	14140.811119783137	2
1	8912	14143.049905858193	3
1	8914	14151.885664514486	2
1	8917	14152.737595716309	1
1	8920	14155.769429886221	2
1	8922	14166.053878544028	3
1	8924	14170.701568924703	2
1	8927	14171.172423453894	1
1	8930	14172.66009347282	0
1	8933	14174.944417967432	1
1	8935	14176.40630190166	0
1	8938	14177.958787333831	0
1	8940	14181.54269042895	0
1	8942	14191.659337272835	0
1	8945	14195.455720403321	0
1	8947	14200.7736120075	0
1	8950	14202.723640670566	0
1	8953	14203.026613411784	1
1	8955	14203.584080905107	2
1	8957	14206.396297892876	1
1	8960	14207.349716272852	0
1	8963	14213.591177917626	1
1	8965	14214.466449361964	2
1	8967	14220.559830529275	3
1	8969	14220.881924420695	2
1	8972	14221.127212922917	1
1	8975	14235.754344003478	0
1	8978	14236.593717007807	0
1	8980	14237.061191910958	0
1	8982	14242.915736204634	0
1	8985	14269.076115316939	0
1	8987	14271.614432681353	0
1	8989	14277.57194938002	0
1	8991	14280.296746203183	0
1	8993	14283.688337001391	0
1	8996	14285.223433626997	0
1	8999	14295.859360042312	0
1	9002	14303.732631827	0
1	9005	14305.460551728837	0
1	9007	14312.752254489369	0
1	9009	14315.432257060262	0
1	9012	14321.287901799471	0
1	9014	14322.184983840548	0
1	9017	14322.321796442468	0
1	9020	14322.422207169043	0
1	9023	14328.490607266214	1
1	9025	14328.514244054972	2
1	9027	14328.860255100435	1
1	9030	14329.40767731089	0
1	9033	14330.656117177572	0
1	9035	14336.806498488795	0
1	9038	14338.402914721877	0
1	9040	14339.275257394833	0
1	9043	14353.558172088005	1
1	9045	14362.419081723036	0
1	9048	14368.705396244229	0
1	9050	14373.642094217568	0
1	9053	14375.834988975024	0
1	9055	14381.129436483736	0
1	9058	14383.039485383882	1
1	9060	14383.813757218505	0
1	9063	14387.882042390453	1
1	9065	14390.620790327913	2
1	9067	14391.249524715745	1
1	9070	14393.734554179985	2
1	9072	14399.522250857197	1

