version 2
run POLICY_1-25-20191213-12:40:09-1219
attr configname POLICY_1
attr datetime 20191213-12:40:09
attr experiment POLICY_1
attr inifile omnetpp.ini
attr iterationvars ""
attr iterationvarsf ""
attr measurement ""
attr network Carrefour
attr processid 1219
attr repetition 25
attr replication #25
attr resultdir results
attr runnumber 25
attr seedset 25
param **.policy 1
param **.delta 0s
param **.tillsNumber 7
param **.capacity 0.3
param **.meanInterArrivalTime 8s
param **.meanItemsInACart 12
param **.interArrivalDistribution 0
param **.itemsInCartDistribution 0

vector 0 Carrefour.decider stats_numCustomers:vector ETV
attr "" ""
attr source numCustomers
vector 1 Carrefour.decider stats_numCustomersQueue:vector ETV
attr "" ""
attr source numCustomersQueue
0	700	1200.362478127078	7
0	703	1217.575591830372	6
0	705	1220.410108218145	7
0	708	1221.45657444437	6
0	710	1222.55758016309	5
0	712	1226.76144573928	4
0	714	1233.422110694181	5
0	717	1235.48152363945	6
0	720	1238.201014559958	5
0	722	1240.904381223237	4
0	724	1242.94900292312	5
0	727	1245.363508530371	4
0	729	1253.01973578207	5
0	732	1257.427749050449	4
0	734	1258.110827242473	3
0	736	1260.276968920835	4
0	739	1264.067092726321	3
0	741	1265.026302811262	2
0	743	1273.063374565605	3
0	746	1274.055006522545	4
0	749	1276.223337663962	3
0	751	1277.735259325208	2
0	753	1296.140439410895	3
0	756	1297.111681425461	2
0	758	1298.123251036796	1
0	760	1306.266945560978	2
0	763	1318.901938223557	1
0	765	1321.64494328339	2
0	768	1324.54996120979	1
0	770	1332.025575770586	2
0	773	1334.024792072406	1
0	775	1336.404743133264	2
0	778	1340.810988179309	3
0	781	1340.854625885251	4
0	784	1350.804652810145	3
0	786	1355.471264135998	4
0	789	1355.755165222743	5
0	792	1357.691874914203	6
0	795	1357.803898544966	7
0	798	1358.420525707519	6
0	800	1364.917356168392	7
0	803	1370.410649608526	6
0	805	1371.795221213703	5
0	807	1372.028899572834	6
0	810	1377.550518298855	5
0	812	1384.438845345391	4
0	814	1385.694416398555	3
0	816	1387.949098052451	4
0	819	1391.812098613034	5
0	822	1393.815356518476	6
0	825	1394.791061130205	7
0	828	1397.029022145276	6
0	830	1397.316720205512	5
0	832	1400.364932700419	4
0	834	1401.279032948123	5
0	837	1401.519731454593	4
0	839	1410.899319893821	3
0	841	1417.266587174767	4
0	844	1417.538744229449	5
0	847	1423.881644424505	4
0	849	1431.331118556365	5
0	852	1434.926050010736	4
0	854	1445.152796925005	3
0	856	1453.176997504526	2
0	858	1453.360033979971	3
0	861	1453.618256205945	2
0	863	1464.05981424836	3
0	866	1467.721526851922	4
0	869	1477.918760232868	3
0	871	1482.399405672206	4
0	874	1482.560380786611	3
0	876	1484.754769278874	4
0	879	1488.861788305419	5
0	882	1499.502231477548	4
0	884	1514.70797100988	3
0	886	1515.312412645761	2
0	888	1515.623845912821	1
0	890	1528.911410459172	2
0	893	1534.71483521373	1
0	895	1539.95772680431	2
0	898	1549.76168300384	3
0	901	1556.322792933822	4
0	904	1563.237463607193	3
0	906	1564.904236939388	4
0	909	1572.503794105049	5
0	912	1583.910264984811	4
0	914	1591.136073944453	5
0	917	1591.85873893742	4
0	919	1593.967807499854	5
0	922	1597.678766290261	6
0	925	1599.477196822063	5
0	927	1601.908069207989	4
0	929	1605.056817723481	5
0	932	1605.548850287098	6
0	935	1609.985354609719	7
0	938	1610.686716772482	6
0	940	1612.553987504932	7
0	943	1618.142093293243	6
0	945	1618.740942705921	7
0	948	1619.345840244093	6
0	950	1630.147957815152	7
0	953	1630.445456651195	6
0	955	1635.483581667877	7
0	958	1639.165053279164	6
0	960	1641.991532800816	5
0	962	1642.35823418936	6
0	965	1642.665225470022	5
0	967	1642.7067296791	4
0	969	1647.901677985912	5
0	972	1651.647814318098	4
0	974	1667.161102741577	5
0	977	1678.08115935904	4
0	979	1686.559771633758	3
0	981	1687.116830875536	4
0	984	1689.751417388485	5
0	987	1690.592832129496	4
0	989	1692.191421649185	5
0	992	1693.592448864479	4
0	994	1695.440736410232	3
0	996	1696.56771008236	2
0	998	1699.528780447496	3
0	1001	1699.936581375962	4
0	1004	1705.8496342889	5
0	1007	1710.81910500312	6
0	1010	1711.914703623403	5
0	1012	1716.661443857051	4
0	1014	1728.416624429354	3
0	1016	1735.496030787581	4
0	1019	1739.692980187813	5
0	1022	1743.307112721846	4
0	1024	1750.7784090628	5
0	1027	1756.118922662348	6
0	1030	1760.372954570298	7
0	1033	1760.957958126999	8
0	1035	1763.675318798662	7
0	1038	1767.555756920837	8
0	1040	1774.536026637724	9
0	1042	1776.730260964787	10
0	1044	1777.892452177935	9
0	1047	1782.114991381268	8
0	1050	1788.032976560715	7
0	1053	1790.035782967077	6
0	1055	1799.856232973547	5
0	1057	1811.486136641682	6
0	1060	1813.91431208332	7
0	1063	1815.790865255851	8
0	1065	1818.061314331395	7
0	1068	1819.995699028724	6
0	1070	1821.580244464653	7
0	1073	1823.490121404582	8
0	1075	1823.952591302152	9
0	1077	1829.344613624759	8
0	1080	1836.557188684796	7
0	1083	1838.936897868689	6
0	1085	1849.933890104096	7
0	1088	1850.733102777491	6
0	1090	1857.993861455348	5
0	1092	1858.241701433404	6
0	1095	1868.061108960756	7
0	1098	1871.684467413949	6
0	1100	1877.045175125123	5
0	1102	1879.582388053083	6
0	1105	1880.107576435325	5
0	1107	1886.771770869226	4
0	1109	1886.773300105005	5
0	1112	1890.170979020062	6
0	1115	1894.006271787367	7
0	1118	1895.347026131082	6
0	1120	1901.865527842121	5
0	1122	1905.695990735369	4
0	1124	1906.117262548811	5
0	1127	1914.262532430009	6
0	1130	1914.412535780614	5
0	1132	1916.134446080855	6
0	1135	1921.718575361462	7
0	1138	1921.956825957936	8
0	1140	1922.709492474438	9
0	1142	1927.877548654311	10
0	1144	1930.04637157886	9
0	1147	1930.698723629368	10
0	1149	1931.277483083561	9
0	1152	1938.324412663853	10
0	1154	1940.293049133197	9
0	1157	1952.021931344331	8
0	1160	1952.413210557751	9
0	1162	1959.079436750601	10
0	1164	1960.622834614179	11
0	1166	1961.281162406796	12
0	1168	1974.485956260371	11
0	1171	1977.419288303314	10
0	1174	1980.069311497118	11
0	1176	1980.414389734383	10
0	1179	1984.362455537177	9
0	1182	1987.910442703862	8
0	1185	1987.92570061242	7
0	1188	1994.474655876019	6
0	1190	2004.071111018288	7
0	1193	2007.626024282958	6
0	1195	2011.171081893866	7
0	1198	2019.945519291946	6
0	1200	2021.154678189113	7
0	1203	2021.288059630256	8
0	1205	2021.787304210873	7
0	1208	2023.320458405987	8
0	1210	2023.985139482433	7
0	1213	2024.392702241334	6
0	1215	2026.436787528554	5
0	1217	2027.017023676732	6
0	1220	2029.810394347048	5
0	1222	2043.791913723903	6
0	1225	2044.136255264197	7
0	1228	2045.58328747856	8
0	1230	2046.63380902	7
0	1233	2046.672416625208	8
0	1235	2050.157966677802	9
0	1237	2051.614857559996	8
0	1240	2051.73843808349	9
0	1242	2062.570601851701	8
0	1245	2062.650219084534	7
0	1248	2069.834492436191	6
0	1250	2087.029611844729	7
0	1253	2088.486186978484	8
0	1255	2088.774866716709	7
0	1258	2089.396245016324	8
0	1260	2095.246468223817	7
0	1263	2095.827354074878	6
0	1265	2101.347070451297	5
0	1267	2102.80854700124	4
0	1269	2106.608111587714	5
0	1272	2109.168999565086	6
0	1275	2115.740964080907	5
0	1277	2124.64822622855	4
0	1279	2125.304373589065	3
0	1281	2128.080603262891	4
0	1284	2132.456453122994	3
0	1286	2132.740867100741	2
0	1288	2133.723085990034	3
0	1291	2135.870315865218	4
0	1294	2141.606635051557	5
0	1297	2145.525229101406	4
0	1299	2145.7906294468	5
0	1302	2152.909562475179	4
0	1304	2157.32138333117	5
0	1307	2162.417940454333	6
0	1310	2173.099593323001	5
0	1312	2177.580499712086	6
0	1315	2179.010304909286	5
0	1317	2182.734592399148	4
0	1319	2191.767174587567	5
0	1322	2198.485253158453	6
0	1325	2200.853818044831	5
0	1327	2201.247828750593	6
0	1330	2203.758025666579	5
0	1332	2205.107550513105	4
0	1334	2208.434233926031	5
0	1337	2209.961857389839	6
0	1340	2210.047466028546	5
0	1342	2212.688170653049	4
0	1344	2217.286126346166	5
0	1347	2220.913102087042	4
0	1349	2222.188153186175	5
0	1352	2223.178550084979	6
0	1355	2227.962460219178	5
0	1357	2235.41588883932	4
0	1359	2241.795962563019	5
0	1362	2265.21403198046	6
0	1365	2272.443731855481	7
0	1368	2275.781412119958	8
0	1370	2280.037987793176	9
0	1372	2281.252827178669	10
0	1374	2285.213491620445	9
0	1377	2285.415135070003	10
0	1379	2285.603452273717	9
0	1382	2285.711692498157	8
0	1385	2286.585183651973	9
0	1387	2289.515618724661	8
0	1390	2289.536137416469	9
0	1392	2297.186052957274	8
0	1395	2304.072499427475	7
0	1398	2305.495435347879	8
0	1400	2307.705341189619	7
0	1403	2308.555818004891	8
0	1405	2308.893902363415	9
0	1407	2312.928110411704	8
0	1410	2313.184226102724	9
0	1412	2313.565334063042	8
0	1415	2314.058653263717	7
0	1418	2318.951789811121	6
0	1420	2320.687952117322	5
0	1422	2322.5309552033	4
0	1424	2330.94713965998	3
0	1426	2335.362757570297	2
0	1428	2344.467974917355	3
0	1431	2352.600556554049	4
0	1434	2354.084230695366	5
0	1437	2355.439953773985	4
0	1439	2366.772717805091	5
0	1442	2373.863891678221	4
0	1444	2378.12219031545	5
0	1447	2378.42408284805	6
0	1450	2383.786764685315	5
0	1452	2385.177876985487	6
0	1455	2395.721556724118	5
0	1457	2395.788238970272	6
0	1460	2397.216361643274	5
0	1462	2397.906244631868	6
0	1465	2406.273269490904	5
0	1467	2409.753577046804	6
0	1470	2429.959269174159	7
0	1473	2432.201474010529	8
0	1475	2438.760263543596	7
0	1478	2441.271614719357	8
0	1480	2454.490717036934	7
0	1483	2457.847016865683	6
0	1485	2474.910349260851	7
0	1488	2475.989981453986	6
0	1490	2480.383447545164	5
0	1492	2496.008713532514	4
0	1494	2499.347690908044	3
0	1496	2506.398324897928	2
0	1498	2506.467817821178	3
0	1501	2515.459402324266	4
0	1504	2519.840705868968	3
0	1506	2521.088473332338	2
0	1508	2525.213934959035	1
0	1510	2527.601178252998	0
0	1512	2530.743524674136	1
0	1515	2548.605365913828	2
0	1518	2554.532943803351	3
0	1521	2556.760658125425	4
0	1524	2556.825426655294	3
0	1526	2565.917535513466	4
0	1529	2566.34217571172	5
0	1532	2568.092329198241	6
0	1535	2569.290723870772	5
0	1537	2577.988239304624	6
0	1540	2579.448921271784	5
0	1542	2582.710067538386	6
0	1545	2597.156413850724	5
0	1547	2597.955351311862	4
0	1549	2602.906728928549	3
0	1551	2607.931835505688	4
0	1554	2608.91480566517	5
0	1557	2609.099605543859	6
0	1560	2609.313218830167	7
0	1563	2613.622303403396	6
0	1565	2621.018205480421	5
0	1567	2621.378355105031	4
0	1569	2628.861111889106	5
0	1572	2639.190919772853	4
0	1574	2642.224090371207	3
0	1576	2644.876672004228	4
0	1579	2655.300352183341	5
0	1582	2655.521660324089	6
0	1585	2670.730737072464	5
0	1587	2671.354747678696	4
0	1589	2680.402785715701	5
0	1592	2683.658635036773	6
0	1595	2686.210756052279	7
0	1598	2687.880838265291	6
0	1600	2689.248282543744	7
0	1603	2690.744641817773	8
0	1605	2692.114140440639	7
0	1608	2695.970578910076	6
0	1610	2697.355970577669	5
0	1612	2698.481279700437	6
0	1615	2701.597238401518	7
0	1618	2710.280758005599	8
0	1620	2712.878165488156	9
0	1622	2715.977336524196	10
0	1624	2717.320565192498	9
0	1627	2721.373548768668	10
0	1629	2721.467932581801	9
0	1632	2725.2503206895	8
0	1635	2728.631490809314	9
0	1637	2729.752171639609	10
0	1639	2735.08732471184	11
0	1641	2740.092799943713	10
0	1644	2745.808223044795	11
0	1646	2749.562718029588	10
0	1649	2771.678565649458	11
0	1651	2772.193272525753	10
0	1654	2772.888159358687	11
0	1656	2774.824940947433	12
0	1658	2777.645905518367	11
0	1661	2780.456668304089	10
0	1664	2780.480411216458	9
0	1667	2781.588816803677	10
0	1669	2786.861302447669	11
0	1671	2790.958379179535	10
0	1674	2792.958501708073	11
0	1676	2801.398156326933	12
0	1678	2803.525761409945	13
0	1680	2806.21857969774	14
0	1682	2808.734528338518	13
0	1685	2811.402349722546	14
0	1687	2813.420956650696	15
0	1689	2818.421010468251	16
0	1691	2820.640998854803	17
0	1693	2822.794304236387	16
0	1696	2833.761458275388	17
0	1698	2840.350921394951	18
0	1700	2840.384843903889	17
0	1703	2840.501001278618	18
0	1705	2842.645534733702	17
0	1708	2844.867437111437	18
0	1710	2845.129861174712	17
0	1713	2854.848510542124	18
0	1715	2859.904452901768	19
0	1717	2862.216512305498	20
0	1719	2873.289630429517	19
0	1722	2873.435927935576	18
0	1725	2875.72158057289	19
0	1727	2879.787866259305	18
0	1730	2884.364457222676	19
0	1732	2886.295026825074	18
0	1735	2887.557624878438	19
0	1737	2895.164086056368	18
0	1740	2895.325029501489	17
0	1743	2895.652243466825	18
0	1745	2896.823793691298	17
0	1748	2901.860521230925	18
0	1750	2902.329928515279	19
0	1752	2908.061145251349	18
0	1755	2909.604240440922	17
0	1758	2912.74754453186	16
0	1761	2918.797029554047	15
0	1764	2921.881392465756	16
0	1766	2932.034022687996	17
0	1768	2934.802783319268	18
0	1770	2938.1259788036	19
0	1772	2943.362261728226	18
0	1775	2950.29041114589	19
0	1777	2952.344166342186	18
0	1780	2952.446036544898	17
0	1783	2955.761066933496	16
0	1786	2956.672126230516	17
0	1788	2956.691056557656	18
0	1790	2957.61001999018	17
0	1793	2960.216642056795	16
0	1796	2967.601683152142	17
0	1798	2972.777861169677	16
0	1801	2972.912383853226	15
0	1804	2974.738380980471	14
0	1807	2975.661343404137	13
0	1810	2976.903960911421	12
0	1813	2979.186362896979	13
0	1815	2980.75947371789	14
0	1817	2982.437861719018	15
0	1819	2984.746832302108	16
0	1821	2985.899718519304	17
0	1823	2987.049570284096	18
0	1825	2996.033274673043	19
0	1827	2997.340714916439	20
0	1829	2999.40525117418	19
0	1832	3001.99245406704	20
0	1834	3003.681393845252	19
0	1837	3008.401706766136	18
0	1840	3021.011467666492	17
0	1843	3022.388284735285	16
0	1846	3024.371485231325	17
0	1848	3025.020503556129	16
0	1851	3040.229025925238	17
0	1853	3041.266408809966	16
0	1856	3051.471884749032	15
0	1859	3054.599123321715	14
0	1862	3057.407497523149	13
0	1865	3060.448224568172	12
0	1868	3068.678622963268	13
0	1870	3071.628673846136	14
0	1872	3072.859074581952	15
0	1874	3077.716856824415	16
0	1876	3078.896252304594	15
0	1879	3079.460761784299	16
0	1881	3087.442865754448	15
0	1884	3093.242579715546	14
0	1887	3099.098618598266	15
0	1889	3099.407471289262	14
0	1892	3099.94503981043	15
0	1894	3103.157902467529	14
0	1897	3110.239903418619	13
0	1900	3110.993013139061	12
0	1903	3111.929323706809	13
0	1905	3112.173954573884	12
0	1908	3112.61215272401	13
0	1910	3115.130550554122	12
0	1913	3118.585559638839	11
0	1916	3119.85511315405	10
0	1919	3120.995339144175	9
0	1922	3121.692092451122	8
0	1925	3126.777626421075	7
0	1928	3127.253059442592	8
0	1930	3129.578442199508	7
0	1933	3134.193634711636	6
0	1935	3138.954167381175	7
0	1938	3149.071924163146	6
0	1940	3150.424217975886	5
0	1942	3150.532470996804	4
0	1944	3163.103688894094	3
0	1946	3166.302675285927	2
0	1948	3169.739546643462	3
0	1951	3171.628938762828	4
0	1954	3174.766220488866	5
0	1957	3179.672606450836	4
0	1959	3179.728018379423	5
0	1962	3188.885851849509	6
0	1965	3189.587850816825	7
0	1968	3190.137578988896	6
0	1970	3191.149655136985	7
0	1973	3194.371433508966	8
0	1975	3197.752827258536	9
0	1977	3198.877887184477	8
0	1980	3203.542157863094	7
0	1983	3217.735622076978	6
0	1985	3229.228154921208	5
0	1987	3230.578263864909	4
0	1989	3233.355819293629	5
0	1992	3239.0016087462	6
0	1995	3248.446031747401	5
0	1997	3257.444082807522	6
0	2000	3260.457572583976	7
0	2003	3268.284898408107	6
0	2005	3271.56931336385	5
0	2007	3275.990977218467	4
0	2009	3276.496913439832	5
0	2012	3279.053989803983	6
0	2015	3282.933479063362	7
0	2018	3284.317673504678	8
0	2020	3288.619022185385	7
0	2023	3293.965062845039	8
0	2025	3298.796410043167	7
0	2028	3298.943353425687	8
0	2030	3299.24604593252	9
0	2032	3300.988072677423	8
0	2035	3307.218462762758	7
0	2038	3307.968590367546	8
0	2040	3313.535015573963	9
0	2042	3314.599245142578	10
0	2044	3315.566586461019	11
0	2046	3319.12537035748	12
0	2048	3320.863056591896	11
0	2051	3324.799315229937	10
0	2054	3328.750199187648	9
0	2057	3329.710118976845	10
0	2059	3329.847656212737	9
0	2062	3335.452228851865	8
0	2065	3335.562160323213	7
0	2068	3341.058160255768	8
0	2070	3345.651419498251	9
0	2072	3354.893698216091	10
0	2074	3356.923486089275	9
0	2077	3358.061616036873	10
0	2079	3359.574358437571	11
0	2081	3364.853616219359	10
0	2084	3370.712909625044	11
0	2086	3374.296693255373	12
0	2088	3376.739320413517	13
0	2090	3376.781333727146	14
0	2092	3377.661350405612	13
0	2095	3382.091816939387	14
0	2097	3385.490878663484	15
0	2099	3385.543536550272	16
0	2101	3391.999022763005	17
0	2103	3392.041303489843	18
0	2105	3392.611058701287	17
0	2108	3393.203440792822	16
0	2111	3394.729161818336	15
0	2114	3403.910261594634	16
0	2116	3408.698450506834	15
0	2119	3410.618583379048	16
0	2121	3412.541999829341	15
0	2124	3414.314625321584	14
0	2127	3415.548026272196	13
0	2130	3416.75806667453	12
0	2133	3417.339197305167	11
0	2136	3417.575319933503	12
0	2138	3419.410201465967	11
0	2141	3420.578820133718	10
0	2144	3421.058259147017	11
0	2146	3421.103303781401	10
0	2149	3423.283782955464	11
0	2151	3427.044664753828	12
0	2153	3432.228768434206	13
0	2155	3434.144265867952	12
0	2158	3435.863033561073	13
0	2160	3440.14519091839	12
0	2163	3456.998007581023	13
0	2165	3457.659660184949	12
0	2168	3459.955266739166	13
0	2170	3462.975930658355	14
0	2172	3464.47522075718	15
0	2174	3464.95536791715	16
0	2176	3465.050890426173	15
0	2179	3469.637849140695	14
0	2182	3495.908940525552	15
0	2184	3501.644369856984	16
0	2186	3508.064113848087	15
0	2189	3513.580072094438	16
0	2191	3516.995478356673	17
0	2193	3521.087977574214	16
0	2196	3528.449868061092	15
0	2199	3532.393290736254	14
0	2202	3536.280620349287	13
0	2205	3539.813365726073	12
0	2208	3542.763086698183	11
0	2211	3545.644398299325	12
0	2213	3547.779162834864	13
0	2215	3548.667096369457	12
0	2218	3553.742486231114	13
0	2220	3555.119724610088	12
0	2223	3555.343998663526	11
0	2226	3557.633143142884	10
0	2229	3562.225426157591	11
0	2231	3563.865528290356	10
0	2234	3564.404667078877	11
0	2236	3566.047255350365	10
0	2239	3566.04828248908	9
0	2242	3568.780416176223	10
0	2244	3574.091276049928	11
0	2246	3599.792202967029	12
0	2248	3602.429378151027	11
0	2251	3602.786036650639	10
0	2254	3606.910228303804	11
0	2256	3619.952709817547	12
0	2258	3624.605260096593	11
0	2261	3625.505611874114	12
0	2263	3628.914054928422	13
0	2265	3629.764010264014	12
0	2268	3632.713320604705	11
0	2271	3633.406443093834	12
0	2273	3635.431101629403	13
0	2275	3637.741619710953	14
0	2277	3642.028919304389	13
0	2280	3647.442120273127	12
0	2283	3653.240180503658	11
0	2286	3653.876615630816	10
0	2289	3657.096971695508	9
0	2292	3662.955762592908	8
0	2295	3670.394371576423	7
0	2298	3670.536797470809	6
0	2300	3673.270413122325	7
0	2303	3673.743570296595	8
0	2305	3682.697822467548	7
0	2308	3685.765415304179	8
0	2310	3687.224098322769	7
0	2313	3694.013886331188	8
0	2315	3694.130046004798	9
0	2317	3696.28050917492	8
0	2320	3696.447466626217	9
0	2322	3697.410731634735	8
0	2325	3704.385868962122	7
0	2328	3705.112380453128	6
0	2330	3707.119711195927	7
0	2333	3708.820387890082	8
0	2335	3709.686741907035	7
0	2338	3710.513465691441	6
0	2340	3713.512735147113	5
0	2342	3717.58996632897	6
0	2345	3722.952452210411	5
0	2347	3723.308159321686	6
0	2350	3726.549411646202	7
0	2353	3730.383068572395	8
0	2355	3730.529500722786	7
0	2358	3735.578302579705	6
0	2360	3739.032854050554	7
0	2363	3754.313941962382	6
0	2365	3755.750519459612	5
0	2367	3758.93620184624	6
0	2370	3759.468525793243	5
0	2372	3761.130133709438	4
0	2374	3774.010778849301	3
0	2376	3776.903746567914	4
0	2379	3777.332851774612	5
0	2382	3777.926636328969	4
0	2384	3778.657725450854	3
0	2386	3779.876447653603	4
0	2389	3783.669051248059	5
0	2392	3785.075448553694	6
0	2395	3790.584251554473	7
0	2398	3797.201074054268	8
0	2400	3803.873019988358	7
0	2403	3804.128524467844	8
0	2405	3806.697630466969	7
0	2408	3807.034679808919	8
0	2410	3814.584868964013	7
0	2413	3815.139963360038	6
0	2415	3820.21791595545	7
0	2418	3825.161074650779	6
0	2420	3826.793960598605	5
0	2422	3833.175477737538	6
0	2425	3836.388063842314	5
0	2427	3836.766477035051	4
0	2429	3838.527355501732	3
0	2431	3846.286059633837	2
0	2433	3851.017820059131	3
0	2436	3851.20912298442	2
0	2438	3852.810736130474	3
0	2441	3857.922235333563	4
0	2444	3859.867413816781	5
0	2447	3860.698642022463	6
0	2450	3869.705749263345	7
0	2453	3875.303995682458	6
0	2455	3878.222124634625	5
0	2457	3880.105074212655	6
0	2460	3884.251470602926	5
0	2462	3885.882180374624	4
0	2464	3889.275643583846	3
0	2466	3896.303124942539	4
0	2469	3899.793742329772	3
0	2471	3901.674905279674	4
0	2474	3910.974777556218	5
0	2477	3920.672202684529	6
0	2480	3926.249744896232	5
0	2482	3928.041002153794	6
0	2485	3931.578240089319	7
0	2488	3933.042737353778	6
0	2490	3935.938497392688	7
0	2493	3937.661519583163	8
0	2495	3938.086211848214	9
0	2497	3939.019065537417	8
0	2500	3941.380278115162	9
0	2502	3942.058298437357	10
0	2504	3943.427122779945	9
0	2507	3945.375674791433	8
0	2510	3946.593205776851	7
0	2513	3948.210263018731	6
0	2515	3948.384572225022	7
0	2518	3950.931481753069	8
0	2520	3953.418108430879	7
0	2523	3955.491044468158	6
0	2525	3958.178061587967	5
0	2527	3960.889062146479	4
0	2529	3962.810185834212	3
0	2531	3965.197153746287	2
0	2533	3976.468485176491	3
0	2536	3976.628486366889	4
0	2539	3979.381326937976	3
0	2541	3986.324145432025	2
0	2543	3988.969133689306	1
0	2545	3996.440499448714	2
0	2548	3997.946827649872	1
0	2550	3998.000404146366	2
0	2553	4007.812563279053	3
0	2556	4007.965558207115	4
0	2559	4016.860610275001	3
0	2561	4017.853238288545	2
0	2563	4024.029325803343	3
0	2566	4039.166502371919	4
0	2569	4041.238562794748	5
0	2572	4043.624689936441	4
0	2574	4046.633170976021	3
0	2576	4051.817936965599	2
0	2578	4059.620549095582	1
0	2580	4061.341275160487	2
0	2583	4066.851534394659	1
0	2585	4074.284458786815	2
0	2588	4078.05269112692	3
0	2591	4086.955163921112	2
0	2593	4088.802559305194	3
0	2596	4089.696785041396	4
0	2599	4091.428887706356	5
0	2602	4096.007182885395	4
0	2604	4096.884246705543	5
0	2607	4098.159454562931	6
0	2610	4109.36396583966	5
0	2612	4111.771939931953	4
0	2614	4123.724474235385	5
0	2617	4124.266484410112	4
0	2619	4127.386342124577	5
0	2622	4146.429476081056	6
0	2625	4149.880896298464	7
0	2628	4150.880415276035	6
0	2630	4153.318155153018	5
0	2632	4156.323988070418	6
0	2635	4157.263729906466	7
0	2638	4159.800213589095	6
0	2640	4161.145743527413	5
0	2642	4163.750515471076	4
0	2644	4169.820852013228	3
0	2646	4174.780117525283	2
0	2648	4188.382704831128	1
0	2650	4194.91823448122	2
0	2653	4196.409152783334	3
0	2656	4197.136249876628	2
0	2658	4198.475651076336	3
0	2661	4207.05713819468	4
0	2664	4208.28104788208	3
0	2666	4212.684996091468	4
0	2669	4215.318001038906	3
0	2671	4217.886219876867	2
0	2673	4236.113078238942	3
0	2676	4248.020109791771	4
0	2679	4250.380132838102	5
0	2682	4260.976432078339	6
0	2685	4261.903394331554	7
0	2688	4269.403326957371	6
0	2690	4273.900260761744	7
0	2693	4274.594100072738	6
0	2695	4286.199893834469	7
0	2698	4287.144722845072	6
0	2700	4291.363968714192	7
0	2703	4292.822356049758	6
0	2705	4293.642288098169	5
0	2707	4296.732288872145	6
0	2710	4300.215425785125	7
0	2713	4307.789853022993	8
0	2715	4314.619045880213	9
0	2717	4317.224561236584	8
0	2720	4319.602453585166	7
0	2723	4332.900791955483	8
0	2725	4333.099269295289	7
0	2728	4336.073681758732	6
0	2730	4336.265064392163	5
0	2732	4340.148090493762	4
0	2734	4347.898833441988	5
0	2737	4351.868539363496	6
0	2740	4357.609070750839	5
0	2742	4363.998825155916	4
0	2744	4364.555134514869	5
0	2747	4365.471009768927	6
0	2750	4368.772286563066	5
0	2752	4368.996860928081	6
0	2755	4370.281813577972	5
0	2757	4372.043208959825	6
0	2760	4373.391329832549	7
0	2763	4373.554999475111	8
0	2765	4376.789421666832	7
0	2768	4376.93768440514	8
0	2770	4384.133577095813	9
0	2772	4385.733592565209	8
0	2775	4387.997583820568	9
0	2777	4395.024057735548	10
0	2779	4399.037331910695	9
0	2782	4401.104825746694	8
0	2785	4409.870200116058	7
0	2788	4413.271247672465	6
0	2790	4414.794841883602	5
0	2792	4426.02732999938	6
0	2795	4432.387483547139	5
0	2797	4435.421335928987	6
0	2800	4440.033010170799	5
0	2802	4444.183932123351	4
0	2804	4448.852639599788	5
0	2807	4449.018800469176	4
0	2809	4450.856968025111	3
0	2811	4457.727341553497	4
0	2814	4467.710967260448	3
0	2816	4477.781006682611	4
0	2819	4479.926562062862	5
0	2822	4492.059286186059	4
0	2824	4498.306856750066	3
0	2826	4498.557118977681	4
0	2829	4500.981619937864	3
0	2831	4505.605865894196	4
0	2834	4508.470318276395	5
0	2837	4508.750736882658	4
0	2839	4510.22671230277	5
0	2842	4510.286094099478	6
0	2845	4511.239269283148	5
0	2847	4518.78766224306	6
0	2850	4520.8128636884	5
0	2852	4523.526613185157	6
0	2855	4528.004782161229	5
0	2857	4531.890984735348	6
0	2860	4543.739604787752	7
0	2863	4545.53440607508	8
0	2865	4547.477754757731	7
0	2868	4547.576266577957	6
0	2870	4555.91197533537	5
0	2872	4562.705882969473	6
0	2875	4562.89590735541	7
0	2878	4564.365393282844	8
0	2880	4574.903165133592	7
0	2883	4575.164665573467	6
0	2885	4576.455177698176	7
0	2888	4577.490053872772	8
0	2890	4577.596154146779	9
0	2892	4579.918245771287	10
0	2894	4581.379491136195	9
0	2897	4588.067563297254	10
0	2899	4588.840654240215	9
0	2902	4589.442411497309	8
0	2905	4589.774503623055	7
0	2908	4589.874512477951	6
0	2910	4592.880109683795	7
0	2913	4596.980143758215	6
0	2915	4601.777100167169	5
0	2917	4604.134355023041	6
0	2920	4611.855046719315	5
0	2922	4614.708159002882	4
0	2924	4615.907887583368	3
0	2926	4626.985707467565	2
0	2928	4643.885283418308	3
0	2931	4650.743763876713	2
0	2933	4652.111647679986	3
0	2936	4661.008113668388	2
0	2938	4667.147783251144	3
0	2941	4681.553410527058	2
0	2943	4682.417087701681	3
0	2946	4684.87864531571	2
0	2948	4685.889399260052	3
0	2951	4693.881552624894	4
0	2954	4696.468754848124	5
0	2957	4699.360743518039	6
0	2960	4699.74891953001	5
0	2962	4709.897344171954	4
0	2964	4725.155184502111	3
0	2966	4730.603117090367	4
0	2969	4734.873656999236	5
0	2972	4737.113282256113	4
0	2974	4738.642070024326	5
0	2977	4740.113281026182	6
0	2980	4740.243255714952	7
0	2983	4746.935101558311	6
0	2985	4747.868509503228	5
0	2987	4748.767035815329	4
0	2989	4753.436446369928	5
0	2992	4758.735470763717	6
0	2995	4760.229856211219	5
0	2997	4762.224250831462	4
0	2999	4762.425538255101	3
0	3001	4763.31612076931	4
0	3004	4763.576266847933	5
0	3007	4767.604737694556	6
0	3010	4768.053130392131	5
0	3012	4768.597715142294	4
0	3014	4771.948214280036	5
0	3017	4774.231032006885	4
0	3019	4778.640183472599	5
0	3022	4782.36687859295	4
0	3024	4784.597711019312	3
0	3026	4784.855089185296	4
0	3029	4788.078022980106	3
0	3031	4790.013118871458	2
0	3033	4796.848102556848	3
0	3036	4802.798654927987	2
0	3038	4821.98017240456	1
0	3040	4822.740991479158	0
0	3042	4833.063761609845	1
0	3045	4844.480604701792	0
0	3047	4856.171761720107	1
0	3050	4867.139875660435	2
0	3053	4870.317810368244	3
0	3056	4872.062239818517	2
0	3058	4873.793036976387	3
0	3061	4875.898395612264	4
0	3064	4879.338853592507	3
0	3066	4882.165642478546	4
0	3069	4891.497745181211	3
0	3071	4892.011286987301	4
0	3074	4894.454089107475	5
0	3077	4898.81743138928	4
0	3079	4900.276200566894	3
0	3081	4903.222823845839	2
0	3083	4909.794497215343	3
0	3086	4910.143415926227	2
0	3088	4923.484268781007	3
0	3091	4923.678408639129	4
0	3094	4924.214822078043	3
0	3096	4932.6638009007	4
0	3099	4934.130901528745	3
0	3101	4934.948958114184	4
0	3104	4937.834088896706	5
0	3107	4938.82844050984	4
0	3109	4939.454327594441	3
0	3111	4941.828711784331	4
0	3114	4944.299589900985	3
0	3116	4947.841664067931	4
0	3119	4949.883932542267	5
0	3122	4950.999578892975	6
0	3125	4955.852962117412	7
0	3128	4958.883990724785	6
0	3130	4965.937564967733	7
0	3133	4975.412075235344	6
0	3135	4978.51001607117	5
0	3137	4980.231872099915	6
0	3140	4987.924586545502	7
0	3143	4994.190112995349	6
0	3145	4995.176696123177	5
0	3147	4995.529577471221	6
0	3150	4997.54757479159	7
0	3153	4998.406745960098	8
0	3155	5004.295687617371	9
0	3157	5005.201073055179	8
0	3160	5005.647585620313	7
0	3163	5008.530339899371	8
0	3165	5010.724888656392	9
0	3167	5011.220814023944	8
0	3170	5011.5242607365	7
0	3173	5021.344348879608	6
0	3175	5027.13631884609	5
0	3177	5027.4335259784	4
0	3179	5028.849973452039	3
0	3181	5029.708308785869	4
0	3184	5030.504162150544	5
0	3187	5032.904281297216	6
0	3190	5033.117648271763	5
0	3192	5047.397697423967	6
0	3195	5048.599602119325	7
0	3198	5056.371510836579	8
0	3200	5058.564293538288	9
0	3202	5058.700983228449	8
0	3205	5061.395117424613	9
0	3207	5076.345316493758	8
0	3210	5080.21354602988	9
0	3212	5082.859362976498	8
0	3215	5085.274998388285	7
0	3218	5086.409517580127	8
0	3220	5089.686766235237	9
0	3222	5093.560929166934	8
0	3225	5096.183934187	9
0	3227	5097.592552986928	10
0	3229	5099.089119106856	9
0	3232	5101.141784398798	8
0	3235	5102.498280587741	9
0	3237	5105.345757694705	10
0	3239	5113.028258165957	9
0	3242	5120.215924987638	8
0	3245	5124.687930780759	7
0	3248	5130.324045707086	6
0	3250	5130.633676339973	5
0	3252	5131.845188477539	4
0	3254	5143.617881520071	5
0	3257	5146.339027839483	4
0	3259	5150.321252494989	5
0	3262	5158.725861492708	4
0	3264	5166.828420978294	5
0	3267	5169.263204179876	4
0	3269	5171.384117150087	5
0	3272	5174.103939678298	4
0	3274	5178.591815032164	3
0	3276	5180.52054531228	4
0	3279	5188.11381672526	5
0	3282	5192.715327936781	4
0	3284	5195.932435301843	5
0	3287	5196.303696304112	4
0	3289	5202.246180239841	5
0	3292	5208.383600179488	4
0	3294	5208.502104325067	5
0	3297	5218.233577868237	6
0	3300	5220.752135081258	5
0	3302	5221.295819858536	4
0	3304	5227.920405463241	5
0	3307	5230.485362984451	4
0	3309	5234.367516461465	3
0	3311	5241.47114958182	4
0	3314	5242.11713620816	5
0	3317	5244.365564924981	4
0	3319	5245.045332129977	3
0	3321	5258.173446549167	4
0	3324	5259.407049927222	3
0	3326	5260.115682001724	4
0	3329	5262.175075532061	3
0	3331	5262.593648425441	4
0	3334	5270.451423994327	5
0	3337	5273.62386823012	4
0	3339	5276.037106000559	3
0	3341	5276.940419116875	2
0	3343	5285.836277312689	3
0	3346	5299.368177653329	4
0	3349	5301.883049650387	5
0	3352	5302.469044425771	4
0	3354	5306.52220232891	5
0	3357	5309.025889934512	6
0	3360	5311.98324131188	5
0	3362	5319.997715235285	6
0	3365	5321.742942767355	5
0	3367	5339.630997909314	6
0	3370	5347.355897421612	5
0	3372	5347.960075655705	4
0	3374	5351.225978091953	3
0	3376	5356.00667301952	2
0	3378	5361.563669710661	3
0	3381	5366.565370888871	4
0	3384	5368.882324180972	5
0	3387	5369.436977247247	4
0	3389	5376.323278450674	5
0	3392	5378.485905399654	4
0	3394	5383.102702482321	5
0	3397	5386.235892053588	6
0	3400	5391.694823918911	7
0	3403	5391.829488222949	6
0	3405	5392.340689233577	5
0	3407	5392.694387245403	4
0	3409	5400.786976196811	3
0	3411	5407.109327576727	4
0	3414	5408.058295063477	5
0	3417	5419.259400648629	4
0	3419	5440.331495447227	5
0	3422	5440.509826398828	6
0	3425	5449.278156864796	5
0	3427	5449.55093857152	4
0	3429	5453.088550654194	5
0	3432	5454.139952620179	6
0	3435	5457.554864105462	7
0	3438	5476.547703256417	8
0	3440	5477.539787508355	7
0	3443	5478.280753467139	8
0	3445	5478.783733442018	9
0	3447	5479.538097357839	8
0	3450	5480.250531989826	7
0	3453	5482.42434476298	6
0	3455	5489.900928089734	5
0	3457	5491.894822703607	6
0	3460	5495.564229512748	5
0	3462	5497.308615081947	6
0	3465	5499.302423186322	7
0	3468	5501.513465966057	6
0	3470	5505.594674623822	5
0	3472	5507.657549634616	4
0	3474	5512.389615576251	3
0	3476	5512.966109266314	4
0	3479	5518.439747252762	3
0	3481	5523.523974894222	4
0	3484	5552.798975809646	3
0	3486	5561.3180179961	4
0	3489	5562.377965536964	3
0	3491	5570.296777099581	2
0	3493	5573.855128339905	3
0	3496	5581.324925190379	4
0	3499	5581.77428692475	5
0	3502	5586.854685382986	6
0	3505	5589.040193712023	7
0	3508	5593.933067100232	8
0	3510	5595.350051298815	7
0	3513	5596.715763856776	8
0	3515	5597.767213833273	9
0	3517	5599.130190195474	10
0	3519	5600.261070730558	11
0	3521	5603.755400441685	10
0	3524	5605.460134292128	9
0	3527	5606.948467599495	10
0	3529	5608.267139463454	9
0	3532	5611.259404312986	8
0	3535	5612.043507213993	9
0	3537	5614.785227374175	8
0	3540	5615.599238412618	9
0	3542	5617.09441050158	10
0	3544	5618.606599454743	9
0	3547	5620.198904840598	10
0	3549	5622.31932131812	9
0	3552	5624.666663308693	8
0	3555	5634.459989829097	9
0	3557	5643.670259216096	8
0	3560	5650.643566166509	9
0	3562	5655.008178645276	8
0	3565	5656.489644916615	7
0	3568	5659.145070679667	6
0	3570	5662.490021349279	7
0	3573	5665.415158478271	8
0	3575	5666.369413924794	9
0	3577	5670.437200074904	8
0	3580	5672.005695693287	9
0	3582	5676.324107456825	8
0	3585	5677.89102052974	7
0	3588	5678.537439308835	6
0	3590	5683.207407577926	7
0	3593	5683.746564777393	8
0	3595	5687.28206846038	9
0	3597	5687.697070695186	10
0	3599	5687.900461982961	9
0	3602	5689.897345137748	8
0	3605	5694.671119210967	7
0	3608	5703.434401150258	8
0	3610	5710.636129621927	9
0	3612	5714.448871866528	10
0	3614	5715.938233264508	9
0	3617	5716.368621964691	10
0	3619	5720.554312124957	9
0	3622	5722.269759247172	8
0	3625	5738.029091808614	9
0	3627	5738.330299287397	8
0	3630	5739.971914412882	7
0	3633	5741.252611889432	8
0	3635	5745.005175569887	7
0	3638	5749.628014968908	6
0	3640	5751.143427010604	7
0	3643	5752.991260443694	8
0	3645	5754.757957725489	9
0	3647	5757.728614274578	10
0	3649	5758.39168426497	9
0	3652	5762.583965241921	10
0	3654	5767.100747371024	9
0	3657	5773.359187897941	8
0	3660	5773.890557255593	7
0	3663	5786.35940056077	8
0	3665	5790.66236345628	7
0	3668	5794.663707511065	6
0	3670	5797.427870980205	7
0	3673	5800.535123918045	6
0	3675	5805.843388314616	5
0	3677	5811.439026885366	4
0	3679	5812.225806296396	5
0	3682	5822.907159811661	4
0	3684	5822.954290612057	5
0	3687	5823.107493445521	4
0	3689	5824.150620323102	3
0	3691	5829.326609726625	2
0	3693	5832.466136921988	3
0	3696	5839.426694809522	2
0	3698	5840.264837091698	1
0	3700	5846.978206776988	0
0	3702	5855.235876863962	1
0	3705	5862.343221215082	2
0	3708	5869.25043556808	3
0	3711	5883.928491116396	4
0	3714	5886.032696246009	5
0	3717	5891.868784588485	6
0	3720	5904.310411340294	7
0	3723	5909.067760375389	6
0	3725	5913.053159721205	5
0	3727	5914.807035546088	4
0	3729	5920.58211560797	5
0	3732	5921.352909116048	4
0	3734	5932.039576720352	3
0	3736	5936.143025232551	2
0	3738	5950.414095531812	1
0	3740	5952.264391063046	0
0	3742	5958.212753971971	1
0	3745	5968.406596243046	2
0	3748	5971.513171861885	3
0	3751	5973.112623372429	4
0	3754	5975.488328286636	5
0	3757	5986.151834780874	6
0	3760	5988.879606256449	7
0	3763	5990.235279677993	6
0	3765	5994.029041389505	5
0	3767	5994.876106453114	4
0	3769	5996.894252330532	3
0	3771	5997.311865814437	4
0	3774	5997.586029480429	5
0	3777	5999.371209069672	4
0	3779	6000.983640592589	3
0	3781	6002.305230642521	4
0	3784	6006.157169528427	5
0	3787	6009.596618600377	6
0	3790	6011.512904551089	7
0	3793	6013.822983290186	6
0	3795	6014.705002682267	5
0	3797	6020.429626317704	6
0	3800	6022.190963650736	5
0	3802	6025.842010040703	4
0	3804	6034.865801732009	3
0	3806	6037.86710987708	2
0	3808	6050.32659203546	3
0	3811	6052.661800418799	4
0	3814	6060.533356203173	5
0	3817	6063.950060986181	6
0	3820	6070.877164820141	5
0	3822	6073.911538940735	6
0	3825	6077.860596825006	7
0	3828	6081.771508806927	8
0	3830	6091.508481047398	9
0	3832	6091.542742369618	10
0	3834	6095.927006168075	9
0	3837	6096.490692195481	8
0	3840	6097.350495190775	9
0	3842	6097.785297920462	8
0	3845	6098.235542010784	7
0	3848	6104.552397114407	6
0	3850	6105.568057644235	7
0	3853	6107.405218217095	6
0	3855	6119.021289196542	5
0	3857	6120.071854702086	4
0	3859	6126.341352574773	5
0	3862	6137.600872937192	4
0	3864	6139.710915567855	5
0	3867	6146.647553394482	4
0	3869	6160.140528191929	5
0	3872	6165.676089633853	6
0	3875	6169.131170250229	7
0	3878	6176.659508459664	6
0	3880	6177.243506008432	7
0	3883	6178.424344430342	6
0	3885	6179.7962042768	5
0	3887	6183.357028948854	4
0	3889	6184.300892090419	5
0	3892	6188.241350383156	4
0	3894	6189.360193082573	5
0	3897	6190.68240360905	4
0	3899	6192.767707858833	3
0	3901	6193.65831431437	2
0	3903	6201.657489119754	1
0	3905	6213.047374380766	2
0	3908	6213.619729132855	3
0	3911	6220.704668441876	4
0	3914	6228.781706757484	3
0	3916	6230.602215924127	4
0	3919	6240.642214241116	3
0	3921	6241.052604631128	2
0	3923	6244.131075138174	3
0	3926	6249.543208547801	4
0	3929	6250.721160345517	5
0	3932	6251.068920682465	4
0	3934	6256.31493380524	5
0	3937	6259.877222532839	4
0	3939	6262.314970661603	5
0	3942	6265.878727301449	4
0	3944	6267.662047916003	5
0	3947	6267.916693901785	4
0	3949	6273.925566702658	3
0	3951	6277.645655701424	4
0	3954	6279.876966163903	5
0	3957	6289.573905420448	6
0	3960	6292.974926207714	7
0	3963	6294.64014166492	8
0	3965	6295.27473165514	9
0	3967	6295.815079099809	8
0	3970	6295.825044051916	9
0	3972	6302.366089981034	8
0	3975	6312.3770865393	7
0	3978	6314.750883066984	8
0	3980	6323.812724505119	7
0	3983	6327.013590581545	6
0	3985	6327.687386717767	5
0	3987	6329.368304888989	4
0	3989	6329.401682597221	3
0	3991	6332.487957349305	4
0	3994	6334.840337899857	5
0	3997	6337.27932748767	6
0	4000	6339.04291738496	7
0	4003	6360.071645518302	8
0	4005	6371.005033152042	7
0	4008	6381.817324902455	6
0	4010	6384.947568850337	5
0	4012	6388.193809006582	6
0	4015	6388.610189398289	5
0	4017	6391.473736764195	6
0	4020	6392.319482913549	7
0	4023	6394.69118224998	8
0	4025	6397.895784587057	7
0	4028	6406.935416138654	8
0	4030	6411.191772928482	9
0	4032	6416.250553328871	8
0	4035	6416.591832864005	7
0	4038	6416.969768710162	8
0	4040	6417.260328097066	7
0	4043	6417.599766214394	6
0	4045	6419.031116177104	5
0	4047	6423.787092643057	4
0	4049	6424.616517324563	3
0	4051	6428.691949640072	4
0	4054	6443.678651928311	3
0	4056	6450.735690177237	2
0	4058	6457.130506105268	1
0	4060	6457.353898269968	2
0	4063	6458.517187905676	3
0	4066	6461.938055594176	4
0	4069	6464.400554023946	3
0	4071	6466.34062976255	2
0	4073	6467.788619886689	1
0	4075	6468.957258181863	2
0	4078	6470.350124765138	3
0	4081	6472.15657505715	2
0	4083	6486.575618556724	3
0	4086	6490.997069553408	4
0	4089	6491.061906356086	3
0	4091	6493.331309085903	4
0	4094	6502.71862397325	3
0	4096	6505.967363898832	4
0	4099	6506.512719310222	5
0	4102	6509.604145387358	4
0	4104	6512.82791785931	5
0	4107	6517.471666519111	6
0	4110	6520.558174399991	5
0	4112	6524.883741067294	4
0	4114	6526.937940080861	5
0	4117	6528.484454254032	4
0	4119	6529.950234750926	5
0	4122	6531.843312466797	6
0	4125	6536.288003104234	7
0	4128	6536.31691315243	6
0	4130	6536.727833063668	7
0	4133	6538.835475959348	6
0	4135	6538.973214788943	7
0	4138	6548.213454523559	8
0	4140	6549.016641911344	9
0	4142	6550.457023000311	8
0	4145	6555.803444254281	9
0	4147	6558.014373083239	10
0	4149	6564.529407796955	9
0	4152	6564.717497014644	10
0	4154	6568.028547304585	11
0	4156	6573.029113054734	10
0	4159	6580.143100212718	11
0	4161	6583.372072390599	10
0	4164	6586.713428082573	11
0	4166	6586.929057191115	10
0	4169	6587.088115234952	9
0	4172	6606.307307806968	8
0	4175	6608.003186209367	7
0	4178	6609.700269291037	8
0	4180	6614.369571402879	7
0	4183	6619.397064507191	6
0	4185	6620.658593630015	7
0	4188	6626.499522238043	6
0	4190	6630.61257601018	5
0	4192	6637.325573618156	4
0	4194	6641.138646615454	5
0	4197	6646.133170099136	4
0	4199	6647.210102038292	3
0	4201	6665.730771481342	4
0	4204	6673.169752030002	5
0	4207	6674.174803589423	4
0	4209	6684.446907364787	5
0	4212	6689.633274684984	6
0	4215	6694.182584935218	7
0	4218	6699.497343065682	6
0	4220	6699.676157786596	7
0	4223	6700.164084989859	8
0	4225	6701.686712662495	7
0	4228	6702.114445297468	6
0	4230	6702.34897301183	5
0	4232	6706.315869365038	4
0	4234	6713.701386358307	3
0	4236	6727.479928687266	4
0	4239	6745.042206321887	3
0	4241	6748.175241958239	4
0	4244	6752.882373176997	3
0	4246	6756.746531161814	2
0	4248	6764.285179117834	1
0	4250	6770.189922943564	2
0	4253	6772.871770847188	1
0	4255	6774.354362673409	2
0	4258	6788.37021059218	3
0	4261	6789.270276159636	4
0	4264	6790.045941994075	5
0	4267	6797.3642079317	6
0	4270	6806.455932656985	7
0	4273	6809.18288476483	8
0	4275	6812.768772919249	9
0	4277	6813.439788977514	10
0	4279	6820.243956657233	9
0	4282	6829.641488996575	10
0	4284	6831.912561064931	9
0	4287	6835.398104992179	8
0	4290	6843.726595872351	9
0	4292	6846.371847629195	10
0	4294	6852.869971787808	11
0	4296	6857.148783067885	12
0	4298	6858.302619125192	13
0	4300	6859.175482193987	14
0	4302	6859.55668725863	13
0	4305	6859.60373164567	12
0	4308	6861.185008934698	11
0	4311	6861.235585094204	12
0	4313	6865.677166237185	13
0	4315	6873.805533285016	12
0	4318	6874.422357522468	11
0	4321	6874.744709792544	12
0	4323	6875.91221638474	13
0	4325	6878.177627743915	12
0	4328	6879.447765884839	11
0	4331	6887.057981885415	10
0	4334	6888.172413550891	11
0	4336	6888.809252023522	10
0	4339	6889.42694950793	9
0	4342	6890.510523999011	10
0	4344	6892.463339214396	11
0	4346	6897.246134414699	12
0	4348	6898.091098850649	11
0	4351	6901.19002158272	12
0	4353	6901.490255002509	11
0	4356	6902.323060153123	12
0	4358	6907.908967750246	11
0	4361	6910.326997612355	12
0	4363	6913.85936083466	13
0	4365	6914.379490864335	14
0	4367	6915.849578153454	13
0	4370	6919.837894449241	14
0	4372	6924.41850363025	15
0	4374	6932.153768154005	14
0	4377	6935.588769772983	13
0	4380	6937.289879932	12
0	4383	6939.143797154388	13
0	4385	6941.104269238306	12
0	4388	6945.421606657567	11
0	4391	6948.15834977582	12
0	4393	6948.322297362997	13
0	4395	6950.962024303917	12
0	4398	6952.738112457321	11
0	4401	6953.27551624566	10
0	4404	6958.359928236336	11
0	4406	6962.449257459847	12
0	4408	6963.82029879328	13
0	4410	6968.003850318274	12
0	4413	6970.865575608952	13
0	4415	6971.724416521666	14
0	4417	6976.914736324028	13
0	4420	6980.688589955255	14
0	4422	6983.442141227848	13
0	4425	6986.814357052589	12
0	4428	6987.359233713796	11
0	4431	6988.416282637142	10
0	4434	6989.888539913337	11
0	4436	6993.720144464085	10
0	4439	6994.010367759716	9
0	4442	6994.769381593267	10
0	4444	6996.740289187875	9
0	4447	7001.706693745603	10
0	4449	7004.847227035977	11
0	4451	7005.186258593464	12
0	4453	7011.054847838365	11
0	4456	7016.261693238034	10
0	4459	7024.843118584553	9
0	4462	7026.891950003208	8
0	4465	7036.117433220253	7
0	4468	7039.139769125946	6
0	4470	7039.971982855791	7
0	4473	7043.826659390626	8
0	4475	7049.606095038488	7
0	4478	7050.62853666164	8
0	4480	7051.572153976663	7
0	4483	7055.807002132742	6
0	4485	7058.11354450517	5
0	4487	7058.11648853078	6
0	4490	7066.179174535783	7
0	4493	7066.331954888379	6
0	4495	7074.393146389097	5
0	4497	7074.543132530787	6
0	4500	7077.583673663367	7
0	4503	7077.846849602509	8
0	4505	7078.270191471516	9
0	4507	7080.794348268262	10
0	4509	7081.481108392476	11
0	4511	7081.933704033759	12
0	4513	7093.032920012227	11
0	4516	7095.722982387308	12
0	4518	7095.838819510145	11
0	4521	7100.560908731943	12
0	4523	7110.220984426562	13
0	4525	7116.094861288075	12
0	4528	7128.170387201059	13
0	4530	7131.200882142582	12
0	4533	7135.017871898562	13
0	4535	7135.998921279915	12
0	4538	7140.575084434322	11
0	4541	7140.639332391081	12
0	4543	7141.110280617469	11
0	4546	7141.738004413025	12
0	4548	7143.93471407223	11
0	4551	7144.484208690427	10
0	4554	7146.526851619284	9
0	4557	7156.881237262839	8
0	4560	7157.36599334087	9
0	4562	7158.146639820817	8
0	4565	7158.178842940621	9
0	4567	7162.199208242532	10
0	4569	7163.769990273088	11
0	4571	7166.848638061208	10
0	4574	7171.746158098846	11
0	4576	7171.992631593271	12
0	4578	7172.62965954499	13
0	4580	7174.019131690481	14
0	4582	7177.273674087132	15
0	4584	7179.692293183444	16
0	4586	7180.02003450918	17
0	4588	7182.436411334438	18
0	4590	7187.560135364797	17
0	4593	7189.769647624059	18
0	4595	7196.597775939877	17
0	4598	7200.477720038678	16
0	4601	7204.596453136833	17
0	4603	7205.871412362939	16
0	4606	7211.433624499743	17
0	4608	7212.1256561764	18
0	4610	7226.147584036404	17
0	4613	7229.101161489796	16
0	4616	7229.909678362407	17
0	4618	7230.98559465916	16
0	4621	7231.989956112029	15
0	4624	7233.402693136622	14
0	4627	7236.678569778362	15
0	4629	7241.945813638228	16
0	4631	7246.321543693046	15
0	4634	7246.850779790934	14
0	4637	7248.281959110504	13
0	4640	7257.513410327633	12
0	4643	7258.481545932258	13
0	4645	7259.229203458029	14
0	4647	7260.868755965609	13
0	4650	7261.777212778936	14
0	4652	7264.550011405372	13
0	4655	7265.254592468293	12
0	4658	7267.45243924985	11
0	4661	7271.650361478627	10
0	4664	7271.995283692826	9
0	4667	7281.952663844507	10
0	4669	7285.447423638212	11
0	4671	7287.485582668184	12
0	4673	7290.0372565001	11
0	4676	7295.488507800099	10
0	4679	7301.461616841093	9
0	4682	7303.303839905977	10
0	4684	7303.487133592199	9
0	4687	7306.307983892914	8
0	4690	7313.438653908817	9
0	4692	7315.342882083974	8
0	4695	7320.765121309676	7
0	4698	7324.047006501396	6
0	4700	7324.903217996994	7
0	4703	7332.510986892591	6
0	4705	7336.768569476975	5
0	4707	7338.48584923615	6
0	4710	7340.338721344345	5
0	4712	7340.592641599149	4
0	4714	7344.623363024008	3
0	4716	7345.449490243622	4
0	4719	7348.315754737496	3
0	4721	7350.227558210322	2
0	4723	7354.99490979418	3
0	4726	7357.893996147165	4
0	4729	7359.538653402865	3
0	4731	7360.579142643918	2
0	4733	7366.785182296478	1
0	4735	7367.153553022236	0
0	4737	7375.708813439692	1
0	4740	7376.292203868544	2
0	4743	7378.312597800719	3
0	4746	7384.178924344071	4
0	4749	7386.106717283986	3
0	4751	7386.111951274466	4
0	4754	7387.752948227737	5
0	4757	7389.758759118306	4
0	4759	7390.662782240974	5
0	4762	7393.568929138266	4
0	4764	7396.474214589129	3
0	4766	7400.912213399681	2
0	4768	7408.75418485001	1
0	4770	7413.79992172242	2
0	4773	7416.301244873743	3
0	4776	7418.041151017933	4
0	4779	7425.811148751296	3
0	4781	7433.840153696932	4
0	4784	7439.053500182936	3
0	4786	7445.301071973198	4
0	4789	7446.496221523992	3
0	4791	7448.659635584849	2
0	4793	7449.239194537683	3
0	4796	7459.292013632578	2
0	4798	7459.939250428672	1
0	4800	7469.009415320658	2
0	4803	7473.010544104616	3
0	4806	7485.056453746345	2
0	4808	7485.651096335335	1
0	4810	7491.369387090277	2
0	4813	7495.038820423017	3
0	4816	7505.838848532861	4
0	4819	7520.989644290508	3
0	4821	7523.071392572969	2
0	4823	7530.06743626375	1
0	4825	7530.863381647041	2
0	4828	7531.905707445432	3
0	4831	7532.501505807495	4
0	4834	7532.541925505689	3
0	4836	7537.298749554244	2
0	4838	7540.049710800416	3
0	4841	7542.202166730924	4
0	4844	7545.310846911029	3
0	4846	7546.219037145884	4
0	4849	7546.402597703992	5
0	4852	7553.867678878862	6
0	4855	7555.114336066869	5
0	4857	7556.907174736346	4
0	4859	7558.461044353599	3
0	4861	7570.62951934164	4
0	4864	7571.144300192816	3
0	4866	7571.599115988601	4
0	4869	7578.072555168692	5
0	4872	7582.785169597492	4
0	4874	7587.72903581831	5
0	4877	7589.140133276155	6
0	4880	7595.20558089336	7
0	4883	7598.007054480982	6
0	4885	7598.053184356236	5
0	4887	7598.678301419261	4
0	4889	7598.762498642622	3
0	4891	7599.682798763864	4
0	4894	7602.441561245426	3
0	4896	7605.855489615695	2
0	4898	7609.527064204748	3
0	4901	7615.28575685976	4
0	4904	7616.893147604153	5
0	4907	7621.388809637897	6
0	4910	7622.439091437543	7
0	4913	7622.458109735335	8
0	4915	7626.2752271943	9
0	4917	7628.994428918617	8
0	4920	7632.620946477575	7
0	4923	7634.088909996504	6
0	4925	7635.639000006254	5
0	4927	7640.04252553474	4
0	4929	7642.962682383085	3
0	4931	7654.409669231696	4
0	4934	7657.955200612988	3
0	4936	7663.594941671458	2
0	4938	7665.287675116153	3
0	4941	7670.681510434342	2
0	4943	7697.181821954695	3
0	4946	7697.691702984333	4
0	4949	7702.505881800566	5
0	4952	7702.974957396554	4
0	4954	7703.626985759507	3
0	4956	7704.304169266219	2
0	4958	7713.455026081722	3
0	4961	7720.669530689884	4
0	4964	7722.094036246325	5
0	4967	7722.321821360886	6
0	4970	7729.125853923977	7
0	4973	7737.108398063554	8
0	4975	7739.625057303949	9
0	4977	7744.548773668306	8
0	4980	7749.867365134496	7
0	4983	7751.182115324323	6
0	4985	7754.762880366439	7
0	4988	7754.849044648407	8
0	4990	7758.259468137596	7
0	4993	7759.418012526776	6
0	4995	7766.206968298539	5
0	4997	7766.267952873342	4
0	4999	7770.032638621991	5
0	5002	7773.866706574229	4
0	5004	7779.717372039058	5
0	5007	7800.584926092896	4
0	5009	7804.790214083963	5
0	5012	7809.293389949955	6
0	5015	7811.567219590175	7
0	5018	7815.329505577307	8
0	5020	7816.733694179567	7
0	5023	7833.834714029916	8
0	5025	7839.048192381436	9
0	5027	7842.435622609286	8
0	5030	7842.799909391941	7
0	5033	7851.067356468331	6
0	5035	7853.664844471184	5
0	5037	7855.509037996552	6
0	5040	7864.27033140339	5
0	5042	7865.263919000023	4
0	5044	7865.541736051896	5
0	5047	7866.553862350395	4
0	5049	7870.111943790131	3
0	5051	7873.494353523856	4
0	5054	7877.636837639506	5
0	5057	7880.339373531056	4
0	5059	7880.467638815214	5
0	5062	7881.445974287166	4
0	5064	7886.419306303408	3
0	5066	7894.624913390558	2
0	5068	7901.582752953591	1
0	5070	7903.291842515782	2
0	5073	7905.5652007604	1
0	5075	7908.141655200301	2
0	5078	7917.138450595777	3
0	5081	7926.498712331346	4
0	5084	7926.984168793468	5
0	5087	7929.153097882192	4
0	5089	7934.596618572445	3
0	5091	7941.971442274142	2
0	5093	7950.161747024065	3
0	5096	7951.612888648111	4
0	5099	7984.039363856114	5
0	5102	7987.118717721561	4
0	5104	7988.088295217775	5
0	5107	7990.286660356429	6
0	5110	7994.480894435968	5
0	5112	8010.543119822782	6
0	5115	8018.571622509413	7
0	5118	8022.069287652181	6
0	5120	8022.72817035896	5
0	5122	8023.819780555778	6
0	5125	8026.936248889059	7
0	5128	8030.230958588653	6
0	5130	8032.521623439249	7
0	5133	8034.378963827523	6
0	5135	8035.012167749711	5
0	5137	8035.890523920956	6
0	5140	8036.106213449146	5
0	5142	8039.53511506795	4
0	5144	8051.105881875905	5
0	5147	8055.65723367108	4
0	5149	8056.070997450051	3
0	5151	8056.470352916815	4
0	5154	8064.467327114617	3
0	5156	8070.039055743543	4
0	5159	8074.417123563674	3
0	5161	8082.332312067133	4
0	5164	8087.44843712419	3
0	5166	8088.474650910264	4
0	5169	8088.76623881921	5
0	5172	8092.003230018961	6
0	5175	8096.33887109219	7
0	5178	8107.493248034974	6
0	5180	8109.226483165308	7
0	5183	8110.900515112407	8
0	5185	8113.948363017353	7
0	5188	8121.451267443071	8
0	5190	8124.96702488401	9
0	5192	8131.955445047779	10
0	5194	8135.620713766607	9
0	5197	8138.728163038115	8
0	5200	8139.642416291302	7
0	5203	8140.174727416861	6
0	5205	8143.646432540532	5
0	5207	8150.274679470301	6
0	5210	8151.280615139874	5
0	5212	8153.640582744416	4
0	5214	8158.69023994044	5
0	5217	8164.525049730877	4
0	5219	8165.839576185517	3
0	5221	8168.971290651326	2
0	5223	8179.723451371518	1
0	5225	8185.613740232727	2
0	5228	8186.794141452756	1
0	5230	8187.863174151497	0
0	5232	8190.102846744486	1
0	5235	8194.67033373273	2
0	5238	8199.647531025132	1
0	5240	8200.218816946455	0
0	5242	8208.426029880482	1
0	5245	8208.748125942861	0
0	5247	8221.364061217417	1
0	5250	8229.310393436836	0
0	5252	8262.345992487566	1
0	5255	8274.038481511296	2
0	5258	8286.86355292431	3
0	5261	8288.481975855618	4
0	5264	8292.180804057438	5
0	5267	8292.364911645942	6
0	5270	8296.422764352784	5
0	5272	8298.927128262025	6
0	5275	8305.008565204852	5
0	5277	8306.849813655991	6
0	5280	8310.738448996893	5
0	5282	8320.106852973961	4
0	5284	8321.480859329096	3
0	5286	8327.731474250601	2
0	5288	8331.872194079142	3
0	5291	8335.553694288286	4
0	5294	8336.22005766727	5
0	5297	8336.349566434018	6
0	5300	8337.671006211078	5
0	5302	8343.877172477818	4
0	5304	8353.782340456199	3
0	5306	8355.357876310146	2
0	5308	8358.593148899348	3
0	5311	8360.161246602333	2
0	5313	8368.00764009275	3
0	5316	8378.19912177926	4
0	5319	8378.544518968675	3
0	5321	8384.890180932536	2
0	5323	8385.182215067547	3
0	5326	8392.285229642754	4
0	5329	8393.375888993448	3
0	5331	8394.304764212936	4
0	5334	8404.257753736681	3
0	5336	8406.534029232103	4
0	5339	8408.206933032581	3
0	5341	8419.412745282083	4
0	5344	8431.450863029035	5
0	5347	8432.440015463554	6
0	5350	8433.484877393413	7
0	5353	8438.666025550392	8
0	5355	8443.863344881802	7
0	5358	8447.488184279668	6
0	5360	8450.529647573285	5
0	5362	8456.313049725302	6
0	5365	8460.460904199824	5
0	5367	8460.576088743582	6
0	5370	8460.713693619532	5
0	5372	8466.971495491277	4
0	5374	8468.13873573172	5
0	5377	8468.374603136158	4
0	5379	8468.7704505165	3
0	5381	8471.448807532637	4
0	5384	8487.748917689374	5
0	5387	8492.266191516481	6
0	5390	8493.102659121606	5
0	5392	8493.648567906852	6
0	5395	8512.205517560869	5
0	5397	8518.567308068566	4
0	5399	8540.569427506139	5
0	5402	8543.769235816858	4
0	5404	8546.918552161527	5
0	5407	8551.143247818986	4
0	5409	8559.661271077962	3
0	5411	8565.56258679136	4
0	5414	8565.983753630243	3
0	5416	8574.411916263191	4
0	5419	8576.783189407419	5
0	5422	8576.868414161852	4
0	5424	8591.942557201769	5
0	5427	8601.138630759074	4
0	5429	8615.22181572445	3
0	5431	8616.347054654748	4
0	5434	8619.183579288991	5
0	5437	8622.402890174574	6
0	5440	8624.180908751654	5
0	5442	8635.268580765728	4
0	5444	8636.382551483187	3
0	5446	8638.932552128256	4
0	5449	8638.964045315771	3
0	5451	8639.198751045822	4
0	5454	8645.797606086041	5
0	5457	8650.492864869398	6
0	5460	8653.989308482066	7
0	5463	8654.782879320052	8
0	5465	8655.487441105423	9
0	5467	8659.041846788498	8
0	5470	8661.999218250791	7
0	5473	8668.765857592816	6
0	5475	8674.39161865741	5
0	5477	8676.829104650632	4
0	5479	8677.328742576262	3
0	5481	8683.255498324118	2
0	5483	8683.622605782196	1
0	5485	8684.545091165582	0
0	5487	8689.34371304571	1
0	5490	8694.453168082941	2
0	5493	8696.089988666768	3
0	5496	8706.095399993351	4
0	5499	8709.72670034879	5
0	5502	8724.269360047611	4
0	5504	8725.82046891671	3
0	5506	8726.937048750206	4
0	5509	8727.593807216477	3
0	5511	8732.149522126924	4
0	5514	8752.164415933001	3
0	5516	8755.096994524857	2
0	5518	8755.60634132104	1
0	5520	8762.605323150751	2
0	5523	8766.451319695596	1
0	5525	8768.646828830704	2
0	5528	8769.011598212541	3
0	5531	8770.798746436059	4
0	5534	8771.127183802499	3
0	5536	8774.343768609429	4
0	5539	8777.069528126308	3
0	5541	8785.563591552823	2
0	5543	8787.812546415375	3
0	5546	8791.110819512325	4
0	5549	8793.841642612042	5
0	5552	8801.575625966591	4
0	5554	8802.294500441764	5
0	5557	8805.82746312084	6
0	5560	8808.359804307146	7
0	5563	8810.074090430633	6
0	5565	8811.522325932971	5
0	5567	8813.122391462693	4
0	5569	8817.113222321278	3
0	5571	8824.016784054714	4
0	5574	8827.568113735315	5
0	5577	8828.699280461628	6
0	5580	8829.580950098919	7
0	5583	8831.133514294749	6
0	5585	8831.315193721783	7
0	5588	8833.79038368765	6
0	5590	8836.758757334576	7
0	5593	8836.815614401751	6
0	5595	8838.12509317567	7
0	5598	8838.577806829464	6
0	5600	8839.828777561976	5
0	5602	8840.625396850347	4
0	5604	8846.867710883059	3
0	5606	8854.356049256441	2
0	5608	8854.397638778671	3
0	5611	8862.403456598765	4
0	5614	8862.755998188495	5
0	5617	8863.570722378419	4
0	5619	8863.66678182037	5
0	5622	8874.798723927697	6
0	5625	8878.746560104114	7
0	5628	8883.883960114205	6
0	5630	8885.54042940555	5
0	5632	8891.254289703938	6
0	5635	8895.796169794005	5
0	5637	8901.096164137527	6
0	5640	8911.612591396018	7
0	5643	8915.630166991646	6
0	5645	8920.637380079741	5
0	5647	8926.848637308561	4
0	5649	8928.175336295798	5
0	5652	8928.230068546717	6
0	5655	8932.208165144678	7
0	5658	8932.228908990161	6
0	5660	8937.518804204206	7
0	5663	8939.736352331351	6
0	5665	8940.295137588537	5
0	5667	8941.103386420838	4
0	5669	8941.235407358977	5
0	5672	8942.564755626511	6
0	5675	8942.572271429924	5
0	5677	8948.582166993552	6
0	5680	8950.332661579026	7
0	5683	8950.627680314337	8
0	5685	8950.759103885009	7
0	5688	8951.642243735804	6
0	5690	8953.454686257394	7
0	5693	8960.811498850882	6
0	5695	8963.890416621238	5
0	5697	8967.562315407955	4
0	5699	8971.264771298156	5
0	5702	8972.323087943283	6
0	5705	8980.461492880934	5
0	5707	8983.380562507326	6
0	5710	8986.078924004474	7
0	5713	9004.296196665655	8
0	5715	9008.172998409479	9
0	5717	9008.472461970864	8
0	5720	9015.582348852471	7
0	5723	9017.232218186326	6
0	5725	9019.247488640431	5
0	5727	9026.330922204876	6
0	5730	9037.949811422359	5
0	5732	9045.424453055815	4
0	5734	9048.15120914741	5
0	5737	9049.342185264422	4
0	5739	9049.627107050819	3
0	5741	9058.396156163537	4
0	5744	9059.600226140144	3
0	5746	9066.983733687045	4
0	5749	9067.019028497486	3
0	5751	9068.649349717431	2
0	5753	9068.812921931476	3
0	5756	9073.415720097614	4
0	5759	9082.470767426794	5
0	5762	9106.628556692947	6
0	5765	9106.8423746529	5
0	5767	9107.939214500487	4
0	5769	9108.039313790038	3
0	5771	9129.135533598972	4
0	5774	9134.133719481059	3
0	5776	9140.571178129789	4
0	5779	9141.64246421001	3
0	5781	9153.153450404477	2
0	5783	9161.028685156016	3
0	5786	9164.476925549747	4
0	5789	9167.439581564804	5
0	5792	9168.033739125628	6
0	5795	9169.839761128263	7
0	5798	9174.510744548527	6
0	5800	9185.395135638097	5
0	5802	9186.357388471769	4
0	5804	9188.891942109026	3
0	5806	9189.910761052464	4
0	5809	9190.335319259348	3
0	5811	9192.927393898144	4
0	5814	9193.701451167642	3
0	5816	9202.382294833076	2
0	5818	9208.641418378434	3
0	5821	9210.95573181317	4
0	5824	9210.998715295964	5
0	5827	9212.381278701703	4
0	5829	9213.936151964302	3
0	5831	9217.911640684729	4
0	5834	9222.877767027031	5
0	5837	9222.892533907164	6
0	5840	9224.878435052468	5
0	5842	9225.896860504697	4
0	5844	9232.95535956829	5
0	5847	9234.826157212055	6
0	5850	9239.430706896375	5
0	5852	9244.249373699417	6
0	5855	9244.328542821928	5
0	5857	9245.133814466185	4
0	5859	9247.197346455349	3
0	5861	9254.5720377302	4
0	5864	9256.641040715246	5
0	5867	9260.953524653525	4
0	5869	9265.171905734711	3
0	5871	9266.550581962863	4
0	5874	9267.435377390341	5
0	5877	9273.908546651845	6
0	5880	9274.47301662964	5
0	5882	9279.874704931854	4
0	5884	9286.295048717004	5
0	5887	9287.603100948989	4
0	5889	9296.157663755458	5
0	5892	9296.478496743615	6
0	5895	9301.536269639386	7
0	5898	9306.504492940864	8
0	5900	9310.208583920984	7
0	5903	9312.751894463053	6
0	5905	9323.756151629902	5
0	5907	9329.313220778151	4
0	5909	9336.04055846192	3
0	5911	9339.210275911155	4
0	5914	9356.005879720711	5
0	5917	9356.40547128994	6
0	5920	9358.225240130353	7
0	5923	9365.846566665762	8
0	5925	9366.930672497837	7
0	5928	9371.399859178068	6
0	5930	9374.260155424168	7
0	5933	9377.355406687572	6
0	5935	9378.483480902428	5
0	5937	9383.253843683817	6
0	5940	9383.952555716964	5
0	5942	9386.479566604917	4
0	5944	9395.890906575441	3
0	5946	9397.647380359579	2
0	5948	9418.767978244407	1
0	5950	9436.018434995343	2
0	5953	9443.488785000395	3
0	5956	9444.645483245896	4
0	5959	9454.967720799628	3
0	5961	9456.006583139722	4
0	5964	9461.866453188791	3
0	5966	9463.672808697499	2
0	5968	9478.125732080583	3
0	5971	9479.126117730375	4
0	5974	9482.869571772085	5
0	5977	9484.865208075998	6
0	5980	9485.106551626039	7
0	5983	9485.733959471349	6
0	5985	9487.331741975259	5
0	5987	9489.192605089186	6
0	5990	9490.791172760227	5
0	5992	9492.392715352241	4
0	5994	9493.780103476915	3
0	5996	9494.061161824356	4
0	5999	9494.193446415437	5
0	6002	9496.832836473194	4
0	6004	9498.405024003408	5
0	6007	9498.97733239648	4
0	6009	9499.228513194973	3
0	6011	9500.948979233967	4
0	6014	9509.939458138901	3
0	6016	9514.32100160209	2
0	6018	9515.448105465536	3
0	6021	9518.369601716281	4
0	6024	9519.90722473696	5
0	6027	9520.881195012285	4
0	6029	9523.757878057361	5
0	6032	9536.762540635511	6
0	6035	9550.483308070491	7
0	6038	9553.098650910608	8
0	6040	9559.597355827305	7
0	6043	9559.628623920074	6
0	6045	9562.094782733585	5
0	6047	9562.74139204295	4
0	6049	9574.421145909073	5
0	6052	9577.952786918961	6
0	6055	9579.813030867808	7
0	6058	9583.731181401085	8
0	6060	9585.689431956396	7
0	6063	9587.89149340468	6
0	6065	9589.50609392811	5
0	6067	9594.201153209671	6
0	6070	9595.66645884013	5
0	6072	9604.129865365404	4
0	6074	9609.856587221775	5
0	6077	9614.145001532811	4
0	6079	9619.639852265193	3
0	6081	9641.779824109373	4
0	6084	9642.830831699476	5
0	6087	9645.691663515738	4
0	6089	9648.337532582299	5
0	6092	9651.936146145365	6
0	6095	9652.213538628052	5
0	6097	9652.242326130764	6
0	6100	9678.320456058128	5
0	6102	9684.662492968643	6
0	6105	9686.919321514894	5
0	6107	9687.641976404651	4
0	6109	9691.002686859457	5
0	6112	9709.980409800057	6
0	6115	9710.237168120686	7
0	6118	9711.438358557998	8
0	6120	9713.32650931682	7
0	6123	9713.328794105043	6
0	6125	9724.166456134425	5
0	6127	9733.597330012861	6
0	6130	9737.802076178943	5
0	6132	9741.734672743857	4
0	6134	9743.890264801287	3
0	6136	9745.348836774886	4
0	6139	9748.876982677978	5
0	6142	9750.186258560168	4
0	6144	9754.697625394115	5
0	6147	9754.740963864379	6
0	6150	9757.248363565011	5
0	6152	9760.174159841805	6
0	6155	9767.112397523244	5
0	6157	9773.443310307393	6
0	6160	9775.09876329247	5
0	6162	9786.514275887319	6
0	6165	9787.328575250377	5
0	6167	9788.0351637897	6
0	6170	9796.391633979437	7
0	6173	9801.296386325934	6
0	6175	9804.935792233133	7
0	6178	9806.548602526921	8
0	6180	9813.708382909291	7
0	6183	9814.04470943796	6
0	6185	9818.692361899149	7
0	6188	9821.54020471386	6
0	6190	9824.673776576735	7
0	6193	9826.59686281971	8
0	6195	9830.867782369339	7
0	6198	9841.988206372972	6
0	6200	9842.634717903623	7
0	6203	9843.794212455729	6
0	6205	9845.301505398623	7
0	6208	9846.43412243861	8
0	6210	9848.390998807095	7
0	6213	9849.216943722912	6
0	6215	9864.934179974862	5
0	6217	9865.298809135249	6
0	6220	9865.909622846152	5
0	6222	9872.34034928563	4
0	6224	9879.898863022322	5
0	6227	9884.58560870077	4
0	6229	9894.31230716167	5
0	6232	9912.063522607079	6
0	6235	9913.610500580525	5
0	6237	9914.91276307305	6
0	6240	9923.475099948318	5
0	6242	9925.313216344113	6
0	6245	9926.045023112293	5
0	6247	9933.919088179015	6
0	6250	9935.250733897362	5
0	6252	9938.049148199781	6
0	6255	9940.644106815449	5
0	6257	9943.083820894761	4
0	6259	9953.486748849515	5
0	6262	9956.731648653942	4
0	6264	9963.672511473447	3
0	6266	9978.464998177198	4
0	6269	9979.014138240676	5
0	6272	9980.329251040602	4
0	6274	9980.406397862124	5
0	6277	9981.234999766851	6
0	6280	9985.016093312318	7
0	6283	9985.414057297858	6
0	6285	9987.3753639902	7
0	6288	9994.095492814887	6
0	6290	9998.536578052907	7
0	6293	10001.61338271971	6
0	6295	10003.880011359979	5
0	6297	10009.343437050677	6
0	6300	10014.249211170874	5
0	6302	10017.10469348284	4
0	6304	10019.933911217987	3
0	6306	10021.761129653721	4
0	6309	10026.428124653941	3
0	6311	10034.608843003739	4
0	6314	10035.464035455132	5
0	6317	10036.03091197674	4
0	6319	10044.007958811641	5
0	6322	10045.01603962944	4
0	6324	10045.124015840382	3
0	6326	10047.302916126181	4
0	6329	10047.319270682828	5
0	6332	10047.69381256156	4
0	6334	10051.433063569806	3
0	6336	10055.427131688358	4
0	6339	10055.436569333731	3
0	6341	10055.92106590897	4
0	6344	10058.680091451827	5
0	6347	10069.613516233231	4
0	6349	10073.372634819159	5
0	6352	10085.77580676664	4
0	6354	10089.04418432229	5
0	6357	10090.112414514558	4
0	6359	10094.923854982825	3
0	6361	10095.415181715908	4
0	6364	10104.377758833101	5
0	6367	10104.863582372297	4
0	6369	10107.829599496518	5
0	6372	10115.16694746801	6
0	6375	10115.889133068617	5
0	6377	10124.605532291352	6
0	6380	10126.251813183537	5
0	6382	10128.002995074992	6
0	6385	10134.35679103511	5
0	6387	10137.19766848558	6
0	6390	10149.634985433702	7
0	6393	10149.703694281514	6
0	6395	10151.626735885667	5
0	6397	10152.960860996006	6
0	6400	10160.257305804043	5
0	6402	10165.559525523356	4
0	6404	10167.425416729896	5
0	6407	10170.114389086063	4
0	6409	10173.8837287922	3
0	6411	10175.857329055055	4
0	6414	10178.861533160158	3
0	6416	10185.493051821516	2
0	6418	10195.075842898688	3
0	6421	10200.576526054076	4
0	6424	10204.246203423896	3
0	6426	10207.987587208282	4
0	6429	10219.324303067693	3
0	6431	10225.608457963749	2
0	6433	10229.558701591294	3
0	6436	10243.810916200693	2
0	6438	10255.253663273281	1
0	6440	10261.086033651685	2
0	6443	10273.005574508899	3
0	6446	10278.893879134523	4
0	6449	10279.5378819071	5
0	6452	10281.064977762661	6
0	6455	10281.221751193782	7
0	6458	10288.887891564709	8
0	6460	10297.455860024144	9
0	6462	10302.033154911203	8
0	6465	10305.579856030442	9
0	6467	10306.106738625471	8
0	6470	10307.876857406389	7
0	6473	10308.457272136214	6
0	6475	10310.856928019063	7
0	6478	10314.612150248441	6
0	6480	10324.958952930545	7
0	6483	10328.077752595283	6
0	6485	10328.574924493105	5
0	6487	10331.201201966406	6
0	6490	10334.93141008414	5
0	6492	10336.881771262111	4
0	6494	10344.737318429155	3
0	6496	10348.346258236996	4
0	6499	10379.496465191334	3
0	6501	10380.214313199533	2
0	6503	10380.699836215061	3
0	6506	10388.735804797589	4
0	6509	10394.648307133125	5
0	6512	10397.038368605364	6
0	6515	10403.236324892085	7
0	6518	10404.020811848683	8
0	6520	10407.036916129991	7
0	6523	10413.287647205637	6
0	6525	10416.610962485392	5
0	6527	10419.839044959845	4
0	6529	10420.744282635626	3
0	6531	10427.524776073056	4
0	6534	10433.254000327485	5
0	6537	10434.584214452691	6
0	6540	10436.544994841448	7
0	6543	10439.174788712751	8
0	6545	10441.601228960769	9
0	6547	10449.446650916894	10
0	6549	10453.213018847965	9
0	6552	10454.857980773525	8
0	6555	10471.701954645028	7
0	6558	10476.691090293553	8
0	6560	10479.589998127166	9
0	6562	10480.031700195548	8
0	6565	10483.797346937524	9
0	6567	10484.57048578766	8
0	6570	10492.994321566923	7
0	6573	10498.247443185369	8
0	6575	10503.795382769964	7
0	6578	10511.051140989295	6
0	6580	10513.340283583993	7
0	6583	10516.110718088853	8
0	6585	10516.20315398229	7
0	6588	10516.372156920612	6
0	6590	10518.252958140076	5
0	6592	10526.61924060266	4
0	6594	10539.274646131477	3
0	6596	10539.563516526641	2
0	6598	10544.42296710406	3
0	6601	10548.64893621995	2
0	6603	10559.764746359187	3
0	6606	10559.981240167272	2
0	6608	10573.272975482205	1
0	6610	10590.322278909079	2
0	6613	10594.05480615793	1
0	6615	10598.064616592772	2
0	6618	10609.079528994551	3
0	6621	10625.507881910725	4
0	6624	10626.834466428241	5
0	6627	10633.780717866048	4
0	6629	10641.875194013252	5
0	6632	10642.140616470192	6
0	6635	10643.095630198403	7
0	6638	10646.599883185395	8
0	6640	10647.643865700702	7
0	6643	10647.989050335403	6
0	6645	10650.372904881115	5
0	6647	10653.182609110172	4
0	6649	10658.885316966256	5
0	6652	10659.1160688358	6
0	6655	10659.275665567038	7
0	6658	10662.721490042537	6
0	6660	10663.046205942973	7
0	6663	10663.800906189685	6
0	6665	10663.981565405711	5
0	6667	10670.11796310314	6
0	6670	10674.86549182741	5
0	6672	10683.360958385423	6
0	6675	10690.045756142395	5
0	6677	10693.908689460684	6
0	6680	10694.300111701757	7
0	6683	10696.010637693891	6
0	6685	10696.242143394486	5
0	6687	10696.311919520243	4
0	6689	10704.845754107459	5
0	6692	10705.640308231042	6
0	6695	10722.58090848515	5
0	6697	10732.355934703065	4
0	6699	10733.034105707982	5
0	6702	10733.597643385199	4
0	6704	10744.675412810733	3
0	6706	10756.59439326502	4
0	6709	10763.70644187724	5
0	6712	10763.949652796707	6
0	6715	10766.665618046065	5
0	6717	10769.91654028377	6
0	6720	10807.723861133489	5
0	6722	10823.195138511439	6
0	6725	10827.303873038511	7
0	6728	10828.439320579083	6
0	6730	10829.635729872467	7
0	6733	10830.129598844733	6
0	6735	10831.597444275168	5
0	6737	10835.107170679737	6
0	6740	10838.320226652259	7
0	6743	10845.400596045555	6
0	6745	10849.505730783659	5
0	6747	10857.009963522237	6
0	6750	10859.755602942537	5
0	6752	10863.77434676089	4
0	6754	10864.479520100126	3
0	6756	10875.181410632838	2
0	6758	10879.52553137788	3
0	6761	10880.779295182113	2
0	6763	10884.177702187543	3
0	6766	10885.258792228752	4
0	6769	10886.90693170237	3
0	6771	10890.93806806747	4
0	6774	10921.688669961627	3
0	6776	10935.020606693744	2
0	6778	10940.421990151056	3
0	6781	10942.829202991422	4
0	6784	10955.204427199945	5
0	6787	10955.514603624255	4
0	6789	10956.732523042061	5
0	6792	10957.459373847079	4
0	6794	10957.834578463584	3
0	6796	10971.126322585536	2
0	6798	10971.302790532201	3
0	6801	10974.078137182004	4
0	6804	10992.897941857143	3
0	6806	11004.804097121112	4
0	6809	11021.173160553473	5
0	6812	11023.215635011447	6
0	6815	11024.671531152977	5
0	6817	11029.964786137113	4
0	6819	11035.102781526566	3
0	6821	11041.72449110318	2
0	6823	11047.525087537532	3
0	6826	11060.063185216625	4
0	6829	11062.725210887633	5
0	6832	11070.434571270745	4
0	6834	11072.431079619274	3
0	6836	11084.022957579522	4
0	6839	11088.515417458658	5
0	6842	11089.116867188555	6
0	6845	11091.585965925859	5
0	6847	11104.63859038129	4
0	6849	11106.048933249575	5
0	6852	11107.433340655388	4
0	6854	11109.376132253616	5
0	6857	11111.710109822303	4
0	6859	11113.873049187626	3
0	6861	11115.169948861664	4
0	6864	11117.533546386186	3
0	6866	11120.414078421641	4
0	6869	11128.135735962065	5
0	6872	11131.030886555949	4
0	6874	11132.577524796821	3
0	6876	11134.680434491281	4
0	6879	11141.455794620981	5
0	6882	11150.234332324982	6
0	6885	11154.86335345402	5
0	6887	11160.525020452393	6
0	6890	11161.357893239516	5
0	6892	11161.95765795899	4
0	6894	11179.200927273661	3
0	6896	11186.692041936048	4
0	6899	11195.440856659811	5
0	6902	11197.090261786394	4
0	6904	11201.512512133365	5
0	6907	11203.047912298239	4
0	6909	11205.74868258096	5
0	6912	11216.302852565102	4
0	6914	11217.735270682004	3
0	6916	11221.193412678555	2
0	6918	11239.437283873448	3
0	6921	11248.587781087059	2
0	6923	11251.132019739022	3
0	6926	11253.639594294073	4
0	6929	11260.866308405435	5
0	6932	11275.958596390567	6
0	6935	11282.36845122571	5
0	6937	11285.821618672481	6
0	6940	11288.28591663827	5
0	6942	11288.425821550537	4
0	6944	11294.399921596972	5
0	6947	11302.797786798385	4
0	6949	11305.059569005782	3
0	6951	11310.714707415232	2
0	6953	11330.018676801604	3
0	6956	11332.451882135953	4
0	6959	11332.490245431819	5
0	6962	11333.593696985446	6
0	6965	11334.437490383946	5
0	6967	11336.794171990635	6
0	6970	11338.443563264941	5
0	6972	11340.002899399387	4
0	6974	11350.726261497432	3
0	6976	11355.352119530744	2
0	6978	11360.737364080423	3
0	6981	11362.60287609803	2
0	6983	11365.360139354531	3
0	6986	11366.293012959141	2
0	6988	11398.771317322589	1
0	6990	11415.884852305956	2
0	6993	11421.162546494346	3
0	6996	11432.393609780282	4
0	6999	11432.497273075502	3
0	7001	11433.313476900076	4
0	7004	11433.413792667926	5
0	7007	11438.716643217951	4
0	7009	11438.759399800844	5
0	7012	11440.611195718225	4
0	7014	11441.5200301643	3
0	7016	11445.042041507921	2
0	7018	11448.448425366472	1
0	7020	11451.683731822178	2
0	7023	11463.992705593619	3
0	7026	11465.868133784264	2
0	7028	11473.355679455214	3
0	7031	11480.711104933976	4
0	7034	11483.262853185463	5
0	7037	11484.613585502047	4
0	7039	11488.48706898833	3
0	7041	11488.753830310353	4
0	7044	11496.141587210442	5
0	7047	11497.158591414838	4
0	7049	11503.565562134108	5
0	7052	11506.732898253002	6
0	7055	11509.847544340427	7
0	7058	11510.519503465575	6
0	7060	11513.977684110968	5
0	7062	11515.039484801705	4
0	7064	11515.218206947775	3
0	7066	11515.649367049115	4
0	7069	11520.824907819221	5
0	7072	11524.08428379037	4
0	7074	11550.681048139975	3
0	7076	11552.648700707775	2
0	7078	11554.198200875225	3
0	7081	11556.77894851674	4
0	7084	11579.896591553739	3
0	7086	11586.467751742283	4
0	7089	11587.394467573756	5
0	7092	11595.481696245876	6
0	7095	11596.8948877552	5
0	7097	11598.76799709268	6
0	7100	11600.417113034625	7
0	7103	11607.067023818735	6
0	7105	11613.985634801758	5
0	7107	11614.506590179537	6
0	7110	11616.725494599273	7
0	7113	11618.289158718176	6
0	7115	11619.164106750356	5
0	7117	11620.351487370861	6
0	7120	11626.273929891382	5
0	7122	11627.521883889102	6
0	7125	11633.126556034169	5
0	7127	11633.569119073159	6
0	7130	11641.191826821153	7
0	7133	11643.2602687649	6
0	7135	11647.219185298772	5
0	7137	11661.222467990233	4
0	7139	11665.201737758079	3
0	7141	11667.600696254546	4
0	7144	11672.287035319505	5
0	7147	11674.526545605554	4
0	7149	11677.896861518087	3
0	7151	11678.058751620905	4
0	7154	11688.447342324584	3
0	7156	11689.102783769523	4
0	7159	11689.887356150795	5
0	7162	11697.835085738543	6
0	7165	11702.098791857001	5
0	7167	11704.141890355458	4
0	7169	11705.227318160787	3
0	7171	11716.579298732809	2
0	7173	11721.257125422208	3
0	7176	11737.713837786023	2
0	7178	11738.166072332212	1
0	7180	11741.189853561236	0
0	7182	11744.167992006464	1
0	7185	11749.942946702804	2
0	7188	11764.937485628108	3
0	7191	11767.185101363248	4
0	7194	11771.318592775891	3
0	7196	11776.024412722204	4
0	7199	11777.559556667798	5
0	7202	11778.570566715273	4
0	7204	11779.704636895749	3
0	7206	11783.295714702185	4
0	7209	11783.467957263717	5
0	7212	11787.211827099297	6
0	7215	11789.277205007535	7
0	7218	11789.96019480354	6
0	7220	11790.5454758575	5
0	7222	11791.49012420964	4
0	7224	11803.166427894285	5
0	7227	11809.283000334742	4
0	7229	11811.365260579707	5
0	7232	11813.301128570343	4
0	7234	11840.138469281566	3
0	7236	11843.833799325514	2
0	7238	11844.976041829389	3
0	7241	11848.353661996071	4
0	7244	11853.740044985008	5
0	7247	11858.671409825817	4
0	7249	11871.71792557178	3
0	7251	11874.017207985671	2
0	7253	11889.614885813805	3
0	7256	11906.60123847538	2
0	7258	11912.805004724416	3
0	7261	11917.132376378451	4
0	7264	11920.098765640869	5
0	7267	11933.333588399689	6
0	7270	11948.49061957753	7
0	7273	11948.727082429122	8
0	7275	11962.530191568023	7
0	7278	11965.580997812829	8
0	7280	11965.827713972611	7
0	7283	11968.91509984416	6
0	7285	11969.743593926999	7
0	7288	11974.228413639041	8
0	7290	11975.455175378064	7
0	7293	11984.012853936735	6
0	7295	11985.375946487492	7
0	7298	11985.577941307734	8
0	7300	11986.702026021195	9
0	7302	11993.043603415071	10
0	7304	11996.459209975597	9
0	7307	11996.95900655712	8
0	7310	11997.415009924506	9
0	7312	11998.634523779245	8
0	7315	12000.650934484476	9
0	7317	12003.685495209072	10
0	7319	12006.963909903405	11
0	7321	12008.968126075478	12
0	7323	12010.889001952304	11
0	7326	12012.579422870554	10
0	7329	12013.251357678858	9
0	7332	12014.313702684606	8
0	7335	12014.62888620819	7
0	7338	12018.15189965709	6
0	7340	12024.40674013448	5
0	7342	12032.59893159574	6
0	7345	12036.993592362163	5
0	7347	12039.962357921971	4
0	7349	12042.136039525699	3
0	7351	12044.098379306892	2
0	7353	12049.768257165239	3
0	7356	12051.987364043986	2
0	7358	12055.244343503605	1
0	7360	12055.724364843423	2
0	7363	12057.401138126718	3
0	7366	12057.934328426533	2
0	7368	12059.578887110759	3
0	7371	12067.394934167717	2
0	7373	12082.289977603641	1
0	7375	12092.370065954748	0
0	7377	12123.466821899593	1
0	7380	12129.039165028189	0
0	7382	12129.779769581162	1
0	7385	12130.042952729206	2
0	7388	12130.072544684759	1
0	7390	12133.905293501202	2
0	7393	12143.122814895033	3
0	7396	12143.291302344043	2
0	7398	12146.100448070115	3
0	7401	12147.098660973491	4
0	7404	12148.970950476031	5
0	7407	12155.327576036346	6
0	7410	12155.73190275191	5
0	7412	12160.211863778135	6
0	7415	12162.779099813641	5
0	7417	12167.188441063486	6
0	7420	12169.377073542373	5
0	7422	12179.438570435422	6
0	7425	12179.664451129793	5
0	7427	12181.693791368366	6
0	7430	12185.222531386038	7
0	7433	12186.051241460098	6
0	7435	12186.656522595859	7
0	7438	12186.675179646357	6
0	7440	12189.55842271582	5
0	7442	12190.43047588192	6
0	7445	12198.190034402009	7
0	7448	12200.825153201436	6
0	7450	12201.195967443187	7
0	7453	12204.350010234491	6
0	7455	12208.868504855631	5
0	7457	12218.297655615931	4
0	7459	12218.673761145568	3
0	7461	12221.17553397621	4
0	7464	12227.196883197533	5
0	7467	12230.409901587531	6
0	7470	12231.070074031868	5
0	7472	12232.908110867371	6
0	7475	12233.644586742318	7
0	7478	12235.545212787855	8
0	7480	12245.995779417843	9
0	7482	12251.520442548233	8
0	7485	12252.108618592394	9
0	7487	12253.714103112738	10
0	7489	12255.186253930757	9
0	7492	12256.562974531025	10
0	7494	12257.84229150705	9
0	7497	12260.310752891196	10
0	7499	12263.919869219042	9
0	7502	12265.030292832017	8
0	7505	12265.351036674	9
0	7507	12267.3111751258	8
0	7510	12268.43272321872	7
0	7513	12276.978731595188	6
0	7515	12280.588676953707	7
0	7518	12281.344929265973	6
0	7520	12291.776461489862	7
0	7523	12299.578041827072	6
0	7525	12303.421963577535	7
0	7528	12307.319901794612	8
0	7530	12308.929679395228	7
0	7533	12309.408336835038	6
0	7535	12315.030071713396	7
0	7538	12315.667507565356	8
0	7540	12317.572881860182	7
0	7543	12321.100417924969	6
0	7545	12323.499951810019	7
0	7548	12325.450033787057	8
0	7550	12326.142538878985	9
0	7552	12333.73892963524	8
0	7555	12333.819117089098	7
0	7558	12339.936294504601	8
0	7560	12350.72979041611	9
0	7562	12351.765023655579	10
0	7564	12354.521903493762	9
0	7567	12354.844187263819	8
0	7570	12356.854099329861	9
0	7572	12359.611363634851	8
0	7575	12364.291803235408	7
0	7578	12365.339548635516	8
0	7580	12366.051763159619	7
0	7583	12368.507520502542	8
0	7585	12370.197010684183	9
0	7587	12372.184727263631	8
0	7590	12375.207380866868	9
0	7592	12376.434265687098	8
0	7595	12380.548173639119	7
0	7598	12381.323493142982	8
0	7600	12381.611186238308	9
0	7602	12384.123361369152	8
0	7605	12388.394438192568	9
0	7607	12389.371696415934	10
0	7609	12390.512953884704	9
0	7612	12391.676830123915	8
0	7615	12392.207991834202	7
0	7618	12393.937535097222	6
0	7620	12395.089913630938	7
0	7623	12401.312368731564	8
0	7625	12404.079909358144	7
0	7628	12406.569247510456	6
0	7630	12407.939504935907	5
0	7632	12415.679750790992	6
0	7635	12419.372239626743	7
0	7638	12421.429447237679	8
0	7640	12424.282694468326	7
0	7643	12430.849157368773	8
0	7645	12434.066549556224	9
0	7647	12436.275282956808	10
0	7649	12437.168163591394	9
0	7652	12447.123617972079	8
0	7655	12450.161580724448	7
0	7658	12450.440307096938	8
0	7660	12450.827331948974	7
0	7663	12450.968871931156	6
0	7665	12454.531266617033	7
0	7668	12465.252007964016	6
0	7670	12466.268355660963	5
0	7672	12470.510851145903	4
0	7674	12478.407190099786	5
0	7677	12481.522629361502	4
0	7679	12487.113259512924	5
0	7682	12487.23125383026	4
0	7684	12491.600662181877	5
0	7687	12495.141998189545	4
0	7689	12496.202755049343	3
0	7691	12500.14082287757	4
0	7694	12500.713329815169	3
0	7696	12501.710650127789	4
0	7699	12503.194205848267	5
0	7702	12504.914742946126	4
0	7704	12515.009245351761	3
0	7706	12516.022245266541	4
0	7709	12525.174636310775	3
0	7711	12527.363346750063	2
0	7713	12540.644616676469	3
0	7716	12541.540650247504	2
0	7718	12542.140293491912	3
0	7721	12544.541969675287	4
0	7724	12554.472941353914	3
0	7726	12554.982315362026	4
0	7729	12563.265005640954	5
0	7732	12563.686032811558	4
0	7734	12569.370192509576	5
0	7737	12575.769506580194	6
0	7740	12579.49722599289	5
0	7742	12580.083778826018	4
0	7744	12588.920225748714	5
0	7747	12593.445596966109	4
0	7749	12602.466277547468	3
0	7751	12603.150375060821	2
0	7753	12608.134481070074	3
0	7756	12608.246710992966	2
0	7758	12614.39886130971	3
0	7761	12621.303683691696	2
0	7763	12630.22481680658	3
0	7766	12632.462420695162	2
0	7768	12637.688475202701	1
0	7770	12653.925067907995	2
0	7773	12655.446150830354	1
0	7775	12656.433687289467	0
0	7777	12660.878861506881	1
0	7780	12662.41046730141	2
0	7783	12671.990844419233	3
0	7786	12673.301023520052	4
0	7789	12674.404549790245	3
0	7791	12675.210967568794	4
0	7794	12681.290449944285	5
0	7797	12682.908747296719	6
0	7800	12689.250815195195	5
0	7802	12689.776143024435	6
0	7805	12690.762427416711	5
0	7807	12696.555377508308	4
0	7809	12700.795658462032	3
0	7811	12710.073773276999	2
0	7813	12710.373760838921	3
0	7816	12713.300231623639	4
0	7819	12721.5691302251	5
0	7822	12726.213516483799	4
0	7824	12735.92194247606	5
0	7827	12735.971954398345	4
0	7829	12736.927832671348	3
0	7831	12751.875689108045	4
0	7834	12754.530750697733	5
0	7837	12758.963546634862	6
0	7840	12762.823083068869	7
0	7843	12767.257763837448	8
0	7845	12768.631992962964	7
0	7848	12774.861539046817	6
0	7850	12775.046735277907	7
0	7853	12775.101644325897	8
0	7855	12775.140037119411	7
0	7858	12775.723188682321	6
0	7860	12777.376084429887	5
0	7862	12779.550221844011	4
0	7864	12785.639416904479	3
0	7866	12792.002976016729	4
0	7869	12793.207985218605	3
0	7871	12797.457928021708	4
0	7874	12801.562123185001	3
0	7876	12803.719281852694	2
0	7878	12808.819376839986	1
0	7880	12818.548380772689	2
0	7883	12821.880826794308	3
0	7886	12832.746151718686	2
0	7888	12837.088274521642	3
0	7891	12846.095243497	4
0	7894	12855.198856653872	3
0	7896	12869.947170752507	4
0	7899	12870.688567138238	5
0	7902	12875.47741294355	6
0	7905	12878.956012397249	7
0	7908	12907.695411097584	6
0	7910	12918.271862175281	5
0	7912	12919.000239886299	4
0	7914	12920.120902067254	5
0	7917	12922.646312129653	6
0	7920	12929.597518096324	5
0	7922	12934.511450806603	4
0	7924	12938.473050602324	3
0	7926	12938.931076254413	4
0	7929	12940.003370714616	5
0	7932	12940.783008316191	6
0	7935	12950.354860882301	5
0	7937	12958.836638817612	4
0	7939	12963.405769971334	3
0	7941	12971.290918039242	4
0	7944	12974.583667691083	3
0	7946	12974.980509151586	2
0	7948	12976.041622919702	3
0	7951	12978.290068957087	4
0	7954	12978.367033588082	5
0	7957	12979.675777072538	4
0	7959	12979.801605741185	5
0	7962	12982.045425654078	6
0	7965	12984.041907446431	7
0	7968	12985.340477612647	8
0	7970	12986.218975575184	7
0	7973	12987.37568605814	8
0	7975	12987.612413037984	7
0	7978	12988.069421331285	8
[...]
1	7064	11515.218206947775	0
1	7066	11515.649367049115	0
1	7069	11520.824907819221	0
1	7072	11524.08428379037	0
1	7074	11550.681048139975	0
1	7076	11552.648700707775	0
1	7078	11554.198200875225	0
1	7081	11556.77894851674	0
1	7084	11579.896591553739	0
1	7086	11586.467751742283	0
1	7089	11587.394467573756	0
1	7092	11595.481696245876	0
1	7095	11596.8948877552	0
1	7097	11598.76799709268	0
1	7100	11600.417113034625	0
1	7103	11607.067023818735	0
1	7105	11613.985634801758	0
1	7107	11614.506590179537	0
1	7110	11616.725494599273	0
1	7113	11618.289158718176	0
1	7115	11619.164106750356	0
1	7117	11620.351487370861	0
1	7120	11626.273929891382	0
1	7122	11627.521883889102	0
1	7125	11633.126556034169	0
1	7127	11633.569119073159	0
1	7130	11641.191826821153	0
1	7133	11643.2602687649	0
1	7135	11647.219185298772	0
1	7137	11661.222467990233	0
1	7139	11665.201737758079	0
1	7141	11667.600696254546	0
1	7144	11672.287035319505	0
1	7147	11674.526545605554	0
1	7149	11677.896861518087	0
1	7151	11678.058751620905	0
1	7154	11688.447342324584	0
1	7156	11689.102783769523	0
1	7159	11689.887356150795	0
1	7162	11697.835085738543	0
1	7165	11702.098791857001	0
1	7167	11704.141890355458	0
1	7169	11705.227318160787	0
1	7171	11716.579298732809	0
1	7173	11721.257125422208	0
1	7176	11737.713837786023	0
1	7178	11738.166072332212	0
1	7180	11741.189853561236	0
1	7182	11744.167992006464	0
1	7185	11749.942946702804	0
1	7188	11764.937485628108	0
1	7191	11767.185101363248	0
1	7194	11771.318592775891	0
1	7196	11776.024412722204	0
1	7199	11777.559556667798	0
1	7202	11778.570566715273	0
1	7204	11779.704636895749	0
1	7206	11783.295714702185	0
1	7209	11783.467957263717	0
1	7212	11787.211827099297	0
1	7215	11789.277205007535	0
1	7218	11789.96019480354	0
1	7220	11790.5454758575	0
1	7222	11791.49012420964	0
1	7224	11803.166427894285	0
1	7227	11809.283000334742	0
1	7229	11811.365260579707	0
1	7232	11813.301128570343	0
1	7234	11840.138469281566	0
1	7236	11843.833799325514	0
1	7238	11844.976041829389	0
1	7241	11848.353661996071	0
1	7244	11853.740044985008	0
1	7247	11858.671409825817	0
1	7249	11871.71792557178	0
1	7251	11874.017207985671	0
1	7253	11889.614885813805	0
1	7256	11906.60123847538	0
1	7258	11912.805004724416	0
1	7261	11917.132376378451	0
1	7264	11920.098765640869	0
1	7267	11933.333588399689	0
1	7270	11948.49061957753	0
1	7273	11948.727082429122	1
1	7275	11962.530191568023	0
1	7278	11965.580997812829	1
1	7280	11965.827713972611	0
1	7283	11968.91509984416	0
1	7285	11969.743593926999	0
1	7288	11974.228413639041	1
1	7290	11975.455175378064	0
1	7293	11984.012853936735	0
1	7295	11985.375946487492	0
1	7298	11985.577941307734	1
1	7300	11986.702026021195	2
1	7302	11993.043603415071	3
1	7304	11996.459209975597	2
1	7307	11996.95900655712	1
1	7310	11997.415009924506	2
1	7312	11998.634523779245	1
1	7315	12000.650934484476	2
1	7317	12003.685495209072	3
1	7319	12006.963909903405	4
1	7321	12008.968126075478	5
1	7323	12010.889001952304	4
1	7326	12012.579422870554	3
1	7329	12013.251357678858	2
1	7332	12014.313702684606	1
1	7335	12014.62888620819	0
1	7338	12018.15189965709	0
1	7340	12024.40674013448	0
1	7342	12032.59893159574	0
1	7345	12036.993592362163	0
1	7347	12039.962357921971	0
1	7349	12042.136039525699	0
1	7351	12044.098379306892	0
1	7353	12049.768257165239	0
1	7356	12051.987364043986	0
1	7358	12055.244343503605	0
1	7360	12055.724364843423	0
1	7363	12057.401138126718	0
1	7366	12057.934328426533	0
1	7368	12059.578887110759	0
1	7371	12067.394934167717	0
1	7373	12082.289977603641	0
1	7375	12092.370065954748	0
1	7377	12123.466821899593	0
1	7380	12129.039165028189	0
1	7382	12129.779769581162	0
1	7385	12130.042952729206	0
1	7388	12130.072544684759	0
1	7390	12133.905293501202	0
1	7393	12143.122814895033	0
1	7396	12143.291302344043	0
1	7398	12146.100448070115	0
1	7401	12147.098660973491	0
1	7404	12148.970950476031	0
1	7407	12155.327576036346	0
1	7410	12155.73190275191	0
1	7412	12160.211863778135	0
1	7415	12162.779099813641	0
1	7417	12167.188441063486	0
1	7420	12169.377073542373	0
1	7422	12179.438570435422	0
1	7425	12179.664451129793	0
1	7427	12181.693791368366	0
1	7430	12185.222531386038	0
1	7433	12186.051241460098	0
1	7435	12186.656522595859	0
1	7438	12186.675179646357	0
1	7440	12189.55842271582	0
1	7442	12190.43047588192	0
1	7445	12198.190034402009	0
1	7448	12200.825153201436	0
1	7450	12201.195967443187	0
1	7453	12204.350010234491	0
1	7455	12208.868504855631	0
1	7457	12218.297655615931	0
1	7459	12218.673761145568	0
1	7461	12221.17553397621	0
1	7464	12227.196883197533	0
1	7467	12230.409901587531	0
1	7470	12231.070074031868	0
1	7472	12232.908110867371	0
1	7475	12233.644586742318	0
1	7478	12235.545212787855	1
1	7480	12245.995779417843	2
1	7482	12251.520442548233	1
1	7485	12252.108618592394	2
1	7487	12253.714103112738	3
1	7489	12255.186253930757	2
1	7492	12256.562974531025	3
1	7494	12257.84229150705	2
1	7497	12260.310752891196	3
1	7499	12263.919869219042	2
1	7502	12265.030292832017	1
1	7505	12265.351036674	2
1	7507	12267.3111751258	1
1	7510	12268.43272321872	0
1	7513	12276.978731595188	0
1	7515	12280.588676953707	0
1	7518	12281.344929265973	0
1	7520	12291.776461489862	0
1	7523	12299.578041827072	0
1	7525	12303.421963577535	0
1	7528	12307.319901794612	1
1	7530	12308.929679395228	0
1	7533	12309.408336835038	0
1	7535	12315.030071713396	0
1	7538	12315.667507565356	1
1	7540	12317.572881860182	0
1	7543	12321.100417924969	0
1	7545	12323.499951810019	0
1	7548	12325.450033787057	1
1	7550	12326.142538878985	2
1	7552	12333.73892963524	1
1	7555	12333.819117089098	0
1	7558	12339.936294504601	1
1	7560	12350.72979041611	2
1	7562	12351.765023655579	3
1	7564	12354.521903493762	2
1	7567	12354.844187263819	1
1	7570	12356.854099329861	2
1	7572	12359.611363634851	1
1	7575	12364.291803235408	0
1	7578	12365.339548635516	1
1	7580	12366.051763159619	0
1	7583	12368.507520502542	1
1	7585	12370.197010684183	2
1	7587	12372.184727263631	1
1	7590	12375.207380866868	2
1	7592	12376.434265687098	1
1	7595	12380.548173639119	0
1	7598	12381.323493142982	1
1	7600	12381.611186238308	2
1	7602	12384.123361369152	1
1	7605	12388.394438192568	2
1	7607	12389.371696415934	3
1	7609	12390.512953884704	2
1	7612	12391.676830123915	1
1	7615	12392.207991834202	0
1	7618	12393.937535097222	0
1	7620	12395.089913630938	0
1	7623	12401.312368731564	1
1	7625	12404.079909358144	0
1	7628	12406.569247510456	0
1	7630	12407.939504935907	0
1	7632	12415.679750790992	0
1	7635	12419.372239626743	0
1	7638	12421.429447237679	1
1	7640	12424.282694468326	0
1	7643	12430.849157368773	1
1	7645	12434.066549556224	2
1	7647	12436.275282956808	3
1	7649	12437.168163591394	2
1	7652	12447.123617972079	1
1	7655	12450.161580724448	0
1	7658	12450.440307096938	1
1	7660	12450.827331948974	0
1	7663	12450.968871931156	0
1	7665	12454.531266617033	0
1	7668	12465.252007964016	0
1	7670	12466.268355660963	0
1	7672	12470.510851145903	0
1	7674	12478.407190099786	0
1	7677	12481.522629361502	0
1	7679	12487.113259512924	0
1	7682	12487.23125383026	0
1	7684	12491.600662181877	0
1	7687	12495.141998189545	0
1	7689	12496.202755049343	0
1	7691	12500.14082287757	0
1	7694	12500.713329815169	0
1	7696	12501.710650127789	0
1	7699	12503.194205848267	0
1	7702	12504.914742946126	0
1	7704	12515.009245351761	0
1	7706	12516.022245266541	0
1	7709	12525.174636310775	0
1	7711	12527.363346750063	0
1	7713	12540.644616676469	0
1	7716	12541.540650247504	0
1	7718	12542.140293491912	0
1	7721	12544.541969675287	0
1	7724	12554.472941353914	0
1	7726	12554.982315362026	0
1	7729	12563.265005640954	0
1	7732	12563.686032811558	0
1	7734	12569.370192509576	0
1	7737	12575.769506580194	0
1	7740	12579.49722599289	0
1	7742	12580.083778826018	0
1	7744	12588.920225748714	0
1	7747	12593.445596966109	0
1	7749	12602.466277547468	0
1	7751	12603.150375060821	0
1	7753	12608.134481070074	0
1	7756	12608.246710992966	0
1	7758	12614.39886130971	0
1	7761	12621.303683691696	0
1	7763	12630.22481680658	0
1	7766	12632.462420695162	0
1	7768	12637.688475202701	0
1	7770	12653.925067907995	0
1	7773	12655.446150830354	0
1	7775	12656.433687289467	0
1	7777	12660.878861506881	0
1	7780	12662.41046730141	0
1	7783	12671.990844419233	0
1	7786	12673.301023520052	0
1	7789	12674.404549790245	0
1	7791	12675.210967568794	0
1	7794	12681.290449944285	0
1	7797	12682.908747296719	0
1	7800	12689.250815195195	0
1	7802	12689.776143024435	0
1	7805	12690.762427416711	0
1	7807	12696.555377508308	0
1	7809	12700.795658462032	0
1	7811	12710.073773276999	0
1	7813	12710.373760838921	0
1	7816	12713.300231623639	0
1	7819	12721.5691302251	0
1	7822	12726.213516483799	0
1	7824	12735.92194247606	0
1	7827	12735.971954398345	0
1	7829	12736.927832671348	0
1	7831	12751.875689108045	0
1	7834	12754.530750697733	0
1	7837	12758.963546634862	0
1	7840	12762.823083068869	0
1	7843	12767.257763837448	1
1	7845	12768.631992962964	0
1	7848	12774.861539046817	0
1	7850	12775.046735277907	0
1	7853	12775.101644325897	1
1	7855	12775.140037119411	0
1	7858	12775.723188682321	0
1	7860	12777.376084429887	0
1	7862	12779.550221844011	0
1	7864	12785.639416904479	0
1	7866	12792.002976016729	0
1	7869	12793.207985218605	0
1	7871	12797.457928021708	0
1	7874	12801.562123185001	0
1	7876	12803.719281852694	0
1	7878	12808.819376839986	0
1	7880	12818.548380772689	0
1	7883	12821.880826794308	0
1	7886	12832.746151718686	0
1	7888	12837.088274521642	0
1	7891	12846.095243497	0
1	7894	12855.198856653872	0
1	7896	12869.947170752507	0
1	7899	12870.688567138238	0
1	7902	12875.47741294355	0
1	7905	12878.956012397249	0
1	7908	12907.695411097584	0
1	7910	12918.271862175281	0
1	7912	12919.000239886299	0
1	7914	12920.120902067254	0
1	7917	12922.646312129653	0
1	7920	12929.597518096324	0
1	7922	12934.511450806603	0
1	7924	12938.473050602324	0
1	7926	12938.931076254413	0
1	7929	12940.003370714616	0
1	7932	12940.783008316191	0
1	7935	12950.354860882301	0
1	7937	12958.836638817612	0
1	7939	12963.405769971334	0
1	7941	12971.290918039242	0
1	7944	12974.583667691083	0
1	7946	12974.980509151586	0
1	7948	12976.041622919702	0
1	7951	12978.290068957087	0
1	7954	12978.367033588082	0
1	7957	12979.675777072538	0
1	7959	12979.801605741185	0
1	7962	12982.045425654078	0
1	7965	12984.041907446431	0
1	7968	12985.340477612647	1
1	7970	12986.218975575184	0
1	7973	12987.37568605814	1
1	7975	12987.612413037984	0
1	7978	12988.069421331285	1
1	7980	12988.931785006136	2
1	7982	12994.719123763271	1
1	7985	12997.224917873665	0
1	7988	13000.405690519589	0
1	7990	13000.967893290509	0
1	7992	13005.300827568501	0
1	7995	13007.68551498385	0
1	7998	13011.745686733006	0
1	8000	13011.924150725812	0
1	8003	13014.736958553119	1
1	8005	13014.923865341136	2
1	8007	13021.993725877773	3
1	8009	13029.722823418504	2
1	8012	13031.227096303307	3
1	8014	13040.670559842876	4
1	8016	13041.764678159502	3
1	8019	13042.205526856569	2
1	8022	13049.134927635819	1
1	8025	13049.237829166081	0
1	8028	13059.868516709861	0
1	8030	13060.133868522177	0
1	8032	13064.914205211892	0
1	8035	13065.391842735236	0
1	8038	13065.97595467678	0
1	8040	13069.820881116703	0
1	8042	13071.649961723873	0
1	8044	13079.840764338235	0
1	8046	13089.611610540378	0
1	8049	13090.635521692892	0
1	8051	13099.925865477501	0
1	8053	13101.147985701903	0
1	8056	13101.895538054155	0
1	8059	13102.947732519675	0
1	8061	13107.296068601775	0
1	8064	13108.480534773282	0
1	8067	13111.375393381919	0
1	8069	13122.393627948285	0
1	8072	13124.563978107602	0
1	8075	13125.249728112007	0
1	8077	13128.739397655188	0
1	8080	13137.201436728603	0
1	8083	13139.977621055588	1
1	8085	13144.244824680741	0
1	8088	13153.242880269804	0
1	8090	13157.279956508666	0
1	8093	13158.086923645646	1
1	8095	13165.690626734022	0
1	8098	13172.217382287259	0
1	8100	13174.540019017891	0
1	8102	13179.038034466992	0
1	8104	13181.836046928192	0
1	8107	13187.540448623553	0
1	8109	13189.115579157192	0
1	8112	13205.893953709967	0
1	8115	13207.555317344672	0
1	8117	13207.772442004253	0
1	8120	13209.689625441238	0
1	8123	13210.661169708863	0
1	8125	13216.85162957151	0
1	8128	13220.747456245541	1
1	8130	13223.223429355791	0
1	8133	13223.474276334005	1
1	8135	13228.123109812335	0
1	8138	13230.591855251888	0
1	8140	13230.9246363009	0
1	8143	13232.377017415467	1
1	8145	13238.513912960471	0
1	8148	13248.971320870809	1
1	8150	13251.834943914816	0
1	8153	13253.124875802138	0
1	8155	13256.259819542058	0
1	8157	13258.750708751642	0
1	8159	13266.313538843851	0
1	8161	13267.11832364032	0
1	8164	13269.213594575915	0
1	8166	13284.96907681569	0
1	8169	13293.252734560284	0
1	8171	13293.910031813226	0
1	8174	13297.96891035975	0
1	8176	13303.815699004999	0
1	8178	13305.200956666682	0
1	8181	13316.537328599467	0
1	8184	13327.369279036275	0
1	8186	13328.001952789001	0
1	8189	13330.650745099002	0
1	8191	13331.433581159032	0
1	8194	13331.561071699333	0
1	8197	13333.781886766138	0
1	8199	13337.137049043171	0
1	8202	13338.396949826142	0
1	8205	13340.81501732827	0
1	8207	13342.433713275621	0
1	8209	13343.560710901137	0
1	8212	13344.868854649556	0
1	8214	13348.129134949708	0
1	8217	13351.94295559324	0
1	8219	13356.955288468071	0
1	8221	13361.495836302964	0
1	8224	13369.315846348316	0
1	8226	13376.023257352042	0
1	8229	13381.867219165145	0
1	8232	13384.134737881963	0
1	8235	13385.36743301679	0
1	8238	13386.256167287968	1
1	8240	13388.633154827235	2
1	8242	13391.373647415128	1
1	8245	13391.410296106208	2
1	8247	13394.700231965282	1
1	8250	13395.734396729773	2
1	8252	13396.275219292428	1
1	8255	13396.831514645295	2
1	8257	13398.170552938906	3
1	8259	13403.82370852828	2
1	8262	13406.262108571713	3
1	8264	13406.374629815798	2
1	8267	13414.989404935028	1
1	8270	13421.934014199469	2
1	8272	13424.371423994649	3
1	8274	13425.859676385046	4
1	8276	13430.449613815171	3
1	8279	13431.272945438915	2
1	8282	13432.899436277496	1
1	8285	13433.330868490993	0
1	8288	13433.354347444957	1
1	8290	13439.830498820995	2
1	8292	13447.701736097134	3
1	8294	13448.643025120424	2
1	8297	13449.246588754941	1
1	8300	13451.77113232846	0
1	8303	13453.76989023553	0
1	8305	13454.998356110074	0
1	8307	13459.626877646957	0
1	8309	13461.252172936989	0
1	8311	13463.351972627108	0
1	8314	13466.132017186156	0
1	8317	13472.158297205564	0
1	8319	13472.353085256475	0
1	8322	13473.474251203658	0
1	8325	13474.707893462805	0
1	8328	13478.943206766876	0
1	8330	13479.492600970134	0
1	8332	13481.605412903531	0
1	8334	13482.307168141754	0
1	8337	13482.995373594326	0
1	8339	13484.246249426617	0
1	8341	13493.670320554419	0
1	8344	13494.605324483147	0
1	8346	13510.564195028001	0
1	8349	13512.456177648081	0
1	8352	13517.876529845806	0
1	8354	13520.122678875735	0
1	8356	13522.734118337051	0
1	8359	13524.656734323145	0
1	8362	13530.435668841355	0
1	8365	13531.023826522499	0
1	8368	13531.44867265066	0
1	8370	13532.901379847941	0
1	8372	13535.417097386268	0
1	8374	13536.14691336525	0
1	8376	13553.983049535994	0
1	8379	13568.830335250866	0
1	8381	13576.63501840379	0
1	8384	13583.156312408608	0
1	8386	13601.059150350354	0
1	8389	13606.02101001897	0
1	8391	13612.065842836804	0
1	8394	13613.324651768701	0
1	8397	13615.002980050359	0
1	8400	13618.390454825384	0
1	8403	13619.500773607144	0
1	8405	13625.80326095573	0
1	8407	13634.81949936382	0
1	8409	13635.366412884164	0
1	8411	13642.866351165704	0
1	8414	13644.200070758819	0
1	8417	13645.497419039937	0
1	8419	13649.467058510755	0
1	8422	13650.093036795369	0
1	8425	13658.428102266224	0
1	8428	13659.46585687757	1
1	8430	13663.062457294474	0
1	8433	13665.872974305017	0
1	8435	13671.276077644443	0
1	8437	13681.943812030751	0
1	8440	13684.064926202931	0
1	8442	13688.377867283859	0
1	8445	13688.870397010482	0
1	8448	13689.221648173842	1
1	8450	13690.207872541437	0
1	8453	13690.237775724909	0
1	8455	13694.358772257317	0
1	8457	13701.938489523451	0
1	8460	13706.516557792036	0
1	8462	13714.059754025197	0
1	8465	13715.043765296873	0
1	8467	13721.185793582233	0
1	8469	13728.502622882295	0
1	8471	13736.873653561809	0
1	8474	13748.567148445311	0
1	8477	13748.707130895139	0
1	8479	13751.567938759852	0
1	8482	13752.274784239803	0
1	8484	13753.623596244823	0
1	8486	13756.716984382908	0
1	8489	13765.650130522704	0
1	8491	13776.327659474613	0
1	8493	13791.058200408157	0
1	8496	13800.305596157354	0
1	8498	13801.245373081978	0
1	8501	13801.804062603785	0
1	8504	13803.281698584963	0
1	8506	13809.707203380719	0
1	8509	13810.528283098379	0
1	8512	13811.312980193343	0
1	8515	13812.026789039172	0
1	8518	13815.784536856383	0
1	8520	13820.519006773967	0
1	8522	13821.118810526726	0
1	8525	13828.429404148192	0
1	8527	13834.756807080537	0
1	8529	13834.794605900695	0
1	8531	13834.894891510803	0
1	8533	13837.151285987875	0
1	8536	13839.91725552598	0
1	8539	13841.702455340543	0
1	8542	13844.082446763142	0
1	8544	13848.923051105208	0
1	8546	13854.300434990603	0
1	8548	13869.154704926526	0
1	8550	13905.361023545995	0
1	8553	13911.289876970044	0
1	8556	13914.862273681361	0
1	8558	13915.132808749068	0
1	8560	13915.842297849337	0
1	8563	13931.001282902966	0
1	8565	13939.196772714815	0
1	8568	13958.086134699111	0
1	8570	13968.39730269897	0
1	8573	13969.306971912963	0
1	8576	13969.546434478575	0
1	8579	13984.183961275665	0
1	8582	13994.484369657228	0
1	8585	14000.537363491331	0
1	8587	14004.51315711993	0
1	8590	14009.30320584053	0
1	8593	14013.867140424386	0
1	8595	14019.75968235559	0
1	8597	14027.137002228492	0
1	8599	14027.863045978514	0
1	8601	14031.122410457013	0
1	8604	14037.230468790008	0
1	8607	14038.178259914486	0
1	8610	14039.958836163733	0
1	8612	14046.147665750215	0
1	8614	14048.543269723427	0
1	8617	14050.490555179831	0
1	8619	14051.493777259601	0
1	8622	14057.423353314798	0
1	8624	14062.347173137341	0
1	8627	14069.067856747011	0
1	8629	14075.094418356783	0
1	8632	14079.834772283922	0
1	8634	14083.227828750556	0
1	8637	14087.504783937643	0
1	8639	14090.442315624208	0
1	8642	14098.577046536595	0
1	8645	14100.085808065884	0
1	8648	14102.027409684147	1
1	8650	14104.899905048835	0
1	8653	14107.460970352693	0
1	8655	14110.69585133546	0
1	8658	14111.480643329189	1
1	8660	14111.655026868275	2
1	8662	14115.242328043024	3
1	8664	14116.520373774474	4
1	8666	14123.410501904453	3
1	8669	14125.225262302616	2
1	8672	14126.501382424177	3
1	8674	14133.16113108406	2
1	8677	14134.515021242346	1
1	8680	14138.233839885792	2
1	8682	14138.96863472435	3
1	8684	14141.889521147081	2
1	8687	14142.721544806022	1
1	8690	14143.187264689662	2
1	8692	14155.432364107948	1
1	8695	14158.788602022683	0
1	8698	14161.934818243024	1
1	8700	14166.880401470925	0
1	8703	14170.098126460607	1
1	8705	14170.701861448341	2
1	8707	14179.921412775163	1
1	8710	14182.025062004753	0
1	8713	14184.706254772334	1
1	8715	14188.837000975452	2
1	8717	14195.256232734337	3
1	8719	14195.535694202323	4
1	8721	14196.027147023974	3
1	8724	14197.799686871638	2
1	8727	14199.221114615095	1
1	8730	14200.343318245676	0
1	8733	14207.709806276059	0
1	8735	14208.666955787013	0
1	8737	14218.370776257858	0
1	8739	14218.833691878332	0
1	8742	14221.539462055927	0
1	8744	14230.611783405605	0
1	8747	14231.341135095929	0
1	8749	14231.411744982973	0
1	8751	14235.206739632941	0
1	8753	14236.215966619988	0
1	8755	14237.340071824886	0
1	8757	14238.450871748215	0
1	8760	14241.660079920189	0
1	8763	14254.050313273762	0
1	8765	14257.59624940945	0
1	8768	14258.704634880892	0
1	8771	14264.414588694497	0
1	8773	14268.680621643653	0
1	8776	14276.590697870732	0
1	8779	14280.193316953683	0
1	8782	14282.737492948577	0
1	8784	14295.895365476732	0
1	8787	14298.58693597971	0
1	8789	14323.605661141568	0
1	8792	14325.89668162602	0
1	8795	14327.261127568778	0
1	8797	14331.239273054561	0
1	8800	14333.694194633127	0
1	8802	14336.192762225102	0
1	8804	14338.236581096471	0
1	8807	14342.956400585537	0
1	8809	14346.353674946659	0
1	8812	14354.118216297301	0
1	8814	14354.852037179471	0
1	8816	14360.345709423737	0
1	8819	14362.312787530806	0
1	8822	14362.843169987691	0
1	8824	14367.21925124569	0
1	8827	14367.967176861125	0
1	8829	14368.853683561274	0
1	8831	14371.505534687564	0
1	8834	14377.473077264806	0
1	8837	14386.144390584993	0
1	8840	14386.253546798141	0
1	8842	14386.529309596542	0
1	8845	14389.094410201156	0
1	8848	14390.463083525821	1
1	8850	14391.367755451494	0
1	8853	14391.611794950504	0
1	8855	14398.956046750741	0

