version 2
run POLICY_1-34-20191213-12:40:10-1220
attr configname POLICY_1
attr datetime 20191213-12:40:10
attr experiment POLICY_1
attr inifile omnetpp.ini
attr iterationvars ""
attr iterationvarsf ""
attr measurement ""
attr network Carrefour
attr processid 1220
attr repetition 34
attr replication #34
attr resultdir results
attr runnumber 34
attr seedset 34
param **.policy 1
param **.delta 0s
param **.tillsNumber 7
param **.capacity 0.3
param **.meanInterArrivalTime 8s
param **.meanItemsInACart 12
param **.interArrivalDistribution 0
param **.itemsInCartDistribution 0

vector 0 Carrefour.decider stats_numCustomers:vector ETV
attr "" ""
attr source numCustomers
vector 1 Carrefour.decider stats_numCustomersQueue:vector ETV
attr "" ""
attr source numCustomersQueue
0	694	1201.845731179034	3
0	696	1215.549422303663	2
0	698	1216.338060572012	3
0	701	1226.592454517673	4
0	704	1229.914141480743	5
0	707	1242.196638097337	6
0	710	1251.927536493585	7
0	713	1252.615185835952	6
0	715	1253.35796378545	7
0	718	1256.911659931826	8
0	720	1261.149112020407	7
0	723	1265.374238038686	6
0	725	1272.62887667079	5
0	727	1272.673678098767	4
0	729	1273.018374812384	5
0	732	1276.146035424478	6
0	735	1277.42171273485	7
0	738	1277.802285150626	6
0	740	1294.328492457365	7
0	743	1295.946251511951	6
0	745	1296.72627307603	5
0	747	1297.431855022144	4
0	749	1297.943638371942	5
0	752	1301.350056201445	4
0	754	1301.481024948338	3
0	756	1303.55173377042	4
0	759	1308.343013102793	3
0	761	1311.964515276828	2
0	763	1325.398776898849	1
0	765	1334.537327047205	0
0	767	1341.254605701595	1
0	770	1344.213533610597	2
0	773	1345.308294461227	3
0	776	1348.193648549277	4
0	779	1349.071288231014	3
0	781	1354.571268693718	4
0	784	1355.014145003603	3
0	786	1355.080270868435	4
0	789	1364.292725260379	5
0	792	1379.214020786534	4
0	794	1382.190875538423	5
0	797	1390.018862595096	6
0	800	1391.673128782099	5
0	802	1394.20725032957	4
0	804	1396.278615741409	3
0	806	1402.47792415246	2
0	808	1414.244616065849	1
0	810	1416.920644671707	0
0	812	1421.184857273405	1
0	815	1425.518700672242	2
0	818	1426.601104413008	3
0	821	1426.726851765738	4
0	824	1430.301025738535	5
0	827	1432.895894853342	4
0	829	1434.053533735181	5
0	832	1441.671670440092	6
0	835	1448.396429850307	5
0	837	1449.926723757174	6
0	840	1450.430185931949	5
0	842	1456.011222983662	6
0	845	1456.477474258012	7
0	848	1457.762110952597	6
0	850	1458.321210852708	5
0	852	1458.766125003745	4
0	854	1459.229606197416	5
0	857	1462.02940937417	4
0	859	1462.26649524866	3
0	861	1469.637927753319	2
0	863	1475.096912890805	3
0	866	1477.680518573586	2
0	868	1482.717470687208	3
0	871	1482.757808514048	2
0	873	1486.780410639398	3
0	876	1491.82490945819	2
0	878	1501.509554315092	3
0	881	1508.850895528585	4
0	884	1510.189683077338	3
0	886	1510.915550079176	4
0	889	1511.080476867051	5
0	892	1514.921488671645	6
0	895	1515.754526544891	5
0	897	1517.214235152839	4
0	899	1521.761528160841	5
0	902	1523.675880798528	6
0	905	1525.749136347764	7
0	908	1529.024403912122	8
0	910	1534.764497098922	9
0	912	1537.211738863205	8
0	915	1538.104589377904	9
0	917	1544.805706132157	10
0	919	1546.186884177068	11
0	921	1551.905587684391	12
0	923	1563.469980056895	13
0	925	1569.123309044034	14
0	927	1573.379735182283	13
0	930	1573.67697933291	12
0	933	1574.261497806176	13
0	935	1576.176677491795	12
0	938	1578.329406239467	11
0	941	1579.18221571641	12
0	943	1580.826914637402	11
0	946	1584.639040689611	12
0	948	1587.158467411324	11
0	951	1587.963741220349	10
0	954	1590.668151522282	9
0	957	1590.916847448662	10
0	959	1592.2316159831	11
0	961	1595.697898409835	10
0	964	1599.05949932082	9
0	967	1599.106099227796	10
0	969	1601.476960312597	9
0	972	1608.197611541571	10
0	974	1608.485275639476	11
0	976	1612.132970774017	10
0	979	1620.823254291771	9
0	982	1622.726125971821	10
0	984	1624.495267927236	11
0	986	1630.603955739306	10
0	989	1632.089613973377	9
0	992	1634.546312152858	8
0	995	1637.507628604141	9
0	997	1639.947804694197	10
0	999	1642.459096163857	11
0	1001	1650.572881556842	10
0	1004	1650.591380586456	9
0	1007	1650.82899229734	10
0	1009	1654.543513443744	11
0	1011	1667.838180871547	10
0	1014	1677.517684942278	9
0	1017	1681.504772640523	8
0	1020	1681.683102242649	7
0	1023	1684.995743122205	8
0	1025	1685.411313482228	7
0	1028	1688.297243590514	6
0	1030	1689.337609967581	7
0	1033	1692.448870069135	6
0	1035	1699.421261534777	7
0	1038	1700.805029359421	8
0	1040	1702.614314309779	7
0	1043	1703.995825135586	6
0	1045	1710.181990834719	7
0	1048	1712.630346755769	6
0	1050	1716.076715745152	7
0	1053	1718.75348747836	6
0	1055	1718.856963662913	5
0	1057	1721.269857032652	6
0	1060	1721.750023869296	5
0	1062	1726.070312147523	6
0	1065	1734.209212114786	7
0	1068	1735.252682191222	6
0	1070	1741.56948954558	5
0	1072	1745.470934310597	6
0	1075	1746.399144623377	7
0	1078	1753.103321980779	8
0	1080	1755.749877136808	7
0	1083	1766.014806138643	8
0	1085	1766.111602413579	7
0	1088	1766.66215224372	6
0	1090	1767.00199363738	5
0	1092	1769.315609219051	4
0	1094	1774.698672334103	5
0	1097	1778.839471056078	4
0	1099	1781.120040816381	3
0	1101	1800.818625148733	2
0	1103	1810.151067135715	3
0	1106	1813.41702236844	4
0	1109	1814.512985576445	5
0	1112	1815.719609058984	4
0	1114	1819.383985534498	5
0	1117	1822.191532011758	4
0	1119	1836.742407931881	5
0	1122	1839.34584039036	4
0	1124	1839.49408018833	5
0	1127	1840.402523468404	6
0	1130	1841.379807669655	7
0	1133	1841.562525653082	8
0	1135	1847.981179945522	7
0	1138	1851.601915505497	8
0	1140	1852.546870950677	9
0	1142	1855.056110116675	8
0	1145	1857.021960848659	7
0	1148	1859.515091086431	6
0	1150	1863.1793520246	5
0	1152	1871.874095913095	6
0	1155	1872.080942018969	5
0	1157	1874.125997845657	6
0	1160	1875.85909472056	7
0	1163	1876.856766358396	6
0	1165	1891.284078335251	7
0	1168	1904.000508994279	6
0	1170	1906.443553143407	5
0	1172	1909.866448281947	4
0	1174	1913.417452911811	5
0	1177	1913.502664820838	6
0	1180	1914.707555204293	5
0	1182	1918.115791845883	6
0	1185	1919.18045298306	7
0	1188	1919.494476854921	8
0	1190	1919.756440182049	7
0	1193	1922.244171582303	8
0	1195	1927.739015510985	9
0	1197	1932.336799942898	8
0	1200	1933.948529434637	9
0	1202	1943.442681124983	8
0	1205	1944.087175651823	7
0	1208	1948.886351348333	8
0	1210	1949.856225354003	9
0	1212	1952.239987798544	10
0	1214	1953.610147988182	9
0	1217	1961.932603358509	8
0	1220	1964.562012865246	9
0	1222	1968.043699760961	8
0	1225	1972.623438685819	9
0	1227	1974.428038555452	10
0	1229	1980.19807183032	9
0	1232	1981.520985796822	8
0	1235	1984.23701114064	9
0	1237	1985.315345527965	8
0	1240	1986.402879517653	7
0	1243	1988.907194505653	8
0	1245	1991.181615139875	9
0	1247	1998.674272491293	8
0	1250	2002.182910754468	7
0	1253	2003.914092175535	6
0	1255	2005.089369878288	7
0	1258	2005.85729431011	6
0	1260	2013.887607127826	7
0	1263	2018.725650408678	8
0	1265	2029.016547788979	7
0	1268	2029.990529043079	6
0	1270	2031.219559389683	5
0	1272	2033.071751112143	4
0	1274	2037.167920834402	5
0	1277	2040.359702799986	4
0	1279	2044.605152739904	5
0	1282	2051.585874126837	4
0	1284	2053.702025698699	5
0	1287	2056.189180514993	6
0	1290	2059.972346091377	5
0	1292	2062.600293535004	6
0	1295	2069.148966240901	7
0	1298	2069.15109634944	6
0	1300	2073.571833296705	5
0	1302	2080.985194653962	6
0	1305	2085.140346115169	5
0	1307	2089.344465102504	4
0	1309	2091.967831829493	5
0	1312	2092.131718192206	6
0	1315	2098.018978484372	7
0	1318	2100.606482639852	8
0	1320	2102.680443399909	9
0	1322	2105.397865186111	10
0	1324	2111.655925118198	11
0	1326	2112.690723949528	12
0	1328	2113.855941638047	11
0	1331	2117.178805574486	12
0	1333	2118.505745600284	13
0	1335	2124.536424844491	12
0	1338	2126.962192982956	13
0	1340	2127.258482474153	14
0	1342	2130.810094413837	13
0	1345	2131.508085144485	12
0	1348	2132.110855814447	13
0	1350	2132.515600367408	12
0	1353	2134.991044344391	11
0	1356	2135.23591380436	12
0	1358	2138.050646463122	11
0	1361	2141.520865891664	10
0	1364	2146.103142915297	9
0	1367	2152.275854209851	8
0	1370	2153.834371092091	9
0	1372	2158.054506749904	8
0	1375	2164.816476651107	9
0	1377	2168.828290459382	8
0	1380	2170.68039568458	9
0	1382	2172.15554511872	8
0	1385	2175.525228392253	7
0	1388	2183.252114572052	6
0	1390	2184.000278848981	5
0	1392	2185.099639327438	4
0	1394	2187.39716367616	5
0	1397	2187.780706970753	4
0	1399	2204.156847377002	3
0	1401	2209.508086941923	4
0	1404	2210.21152990524	3
0	1406	2210.87024730118	4
0	1409	2215.623520716559	3
0	1411	2216.191546297073	4
0	1414	2224.600254606085	5
0	1417	2226.214730236539	6
0	1420	2229.564147407188	5
0	1422	2231.787163335952	6
0	1425	2233.318376452281	7
0	1428	2236.308974656848	6
0	1430	2245.331215615679	5
0	1432	2246.948130711282	6
0	1435	2247.201384112924	5
0	1437	2249.867922724352	6
0	1440	2251.751249925101	5
0	1442	2253.907992047764	4
0	1444	2254.161768474274	5
0	1447	2255.415972532184	4
0	1449	2256.341062094545	5
0	1452	2256.869090521378	4
0	1454	2258.613949915003	5
0	1457	2259.38686649695	4
0	1459	2262.717296955077	5
0	1462	2267.917741245279	4
0	1464	2271.668885806914	5
0	1467	2278.944329923655	6
0	1470	2282.761144372118	5
0	1472	2282.84516736111	4
0	1474	2283.79897801568	5
0	1477	2285.809637049432	6
0	1480	2288.064041722368	5
0	1482	2291.270077113941	4
0	1484	2305.094771945623	3
0	1486	2308.549974726996	4
0	1489	2315.2589373759	5
0	1492	2318.607852355018	6
0	1495	2319.972935837816	5
0	1497	2325.869461463322	4
0	1499	2326.044648118582	5
0	1502	2331.274967232882	6
0	1505	2332.902789440647	5
0	1507	2337.279725275066	4
0	1509	2346.589102569933	5
0	1512	2346.683796391831	4
0	1514	2347.6356261428	5
0	1517	2351.937817484719	6
0	1520	2352.372362906462	7
0	1523	2352.838782997162	6
0	1525	2359.423945095448	5
0	1527	2360.203186327671	4
0	1529	2361.040546090538	5
0	1532	2364.856447709709	6
0	1535	2366.022491735616	5
0	1537	2367.359312527551	4
0	1539	2378.338973170361	5
0	1542	2390.293833037972	6
0	1545	2395.856335526223	5
0	1547	2405.620637816742	4
0	1549	2407.111856272669	3
0	1551	2409.956226257458	2
0	1553	2414.536000187253	3
0	1556	2416.037621683447	4
0	1559	2420.85955486774	5
0	1562	2422.044825013967	4
0	1564	2425.161316428057	5
0	1567	2426.337433739565	6
0	1570	2430.167575077971	5
0	1572	2436.263349632507	6
0	1575	2436.664569650308	7
0	1578	2439.208841218935	8
0	1580	2439.34761906335	9
0	1582	2443.304039667169	8
0	1585	2449.86878301228	7
0	1588	2450.58022162826	8
0	1590	2455.885450969139	7
0	1593	2459.787656568875	6
0	1595	2469.927907595621	5
0	1597	2470.700280030111	6
0	1600	2476.289840589724	7
0	1603	2477.799414110519	6
0	1605	2478.540150411459	7
0	1608	2480.378393240432	8
0	1610	2482.348955075921	9
0	1612	2485.788234973647	10
0	1614	2487.088588860498	9
0	1617	2489.546814786383	10
0	1619	2490.433181839625	11
0	1621	2491.614238429164	10
0	1624	2492.399064356569	9
0	1627	2494.987197198024	10
0	1629	2498.303443941823	11
0	1631	2499.966671791301	12
0	1633	2500.444350550616	11
0	1636	2502.483735648969	10
0	1639	2503.228725275442	11
0	1641	2506.459014664365	12
0	1643	2517.471992329979	13
0	1645	2518.353381312711	12
0	1648	2521.499533048921	11
0	1651	2522.970491231191	10
0	1654	2523.153145612116	9
0	1657	2523.786268361181	8
0	1660	2528.976136999292	9
0	1662	2528.999095136494	8
0	1665	2532.077085514112	9
0	1667	2533.199205059223	8
0	1670	2534.301113441717	7
0	1673	2544.558705178905	8
0	1675	2568.993182070532	7
0	1678	2570.257850177264	8
0	1680	2571.855654559319	9
0	1682	2575.761321256179	8
0	1685	2576.935074353104	9
0	1687	2582.935375260974	8
0	1690	2583.56371764886	7
0	1693	2595.190575274995	6
0	1695	2596.648594367216	5
0	1697	2599.700115754368	4
0	1699	2601.932672988425	5
0	1702	2608.670881975431	4
0	1704	2609.566954699547	5
0	1707	2615.051618423593	6
0	1710	2616.782222624279	5
0	1712	2618.918470829211	4
0	1714	2618.974288995887	3
0	1716	2619.404316593604	4
0	1719	2619.714650754334	5
0	1722	2620.260821306507	6
0	1725	2620.493599754793	7
0	1728	2623.131943759012	8
0	1730	2623.528725521929	9
0	1732	2624.910864775326	8
0	1735	2630.646519068228	9
0	1737	2633.421758383781	10
0	1739	2633.99171475267	11
0	1741	2634.377891814289	12
0	1743	2634.425185137465	11
0	1746	2639.331361843063	12
0	1748	2656.232005587674	11
0	1751	2658.943390019633	12
0	1753	2664.553098965605	11
0	1756	2668.558043961979	12
0	1758	2669.075040638265	11
0	1761	2674.14934123083	10
0	1764	2674.686162417251	11
0	1766	2678.868547785364	12
0	1768	2684.758855415303	13
0	1770	2686.889197815236	14
0	1772	2691.260264819683	13
0	1775	2694.622205051428	12
0	1778	2695.161487450834	11
0	1781	2698.122742670975	10
0	1784	2699.378918672634	9
0	1787	2700.910564709221	8
0	1790	2703.591375920572	9
0	1792	2709.53305484125	10
0	1794	2719.577483925347	9
0	1797	2728.574956052866	10
0	1799	2739.90455437527	9
0	1802	2740.091955640116	10
0	1804	2744.184505341372	9
0	1807	2744.907916799317	10
0	1809	2747.02837908009	9
0	1812	2751.3872821346	8
0	1815	2764.808229408183	7
0	1818	2765.865314403745	8
0	1820	2766.476646295229	9
0	1822	2778.670570645174	8
0	1825	2780.073357712069	7
0	1828	2793.898502822796	8
0	1830	2794.035167920313	7
0	1833	2795.103492269832	8
0	1835	2796.083716358018	7
0	1838	2797.177125769787	6
0	1840	2797.768080661941	7
0	1843	2798.76005060162	8
0	1845	2799.828186727766	9
0	1847	2801.860311720985	10
0	1849	2804.251323539256	9
0	1852	2805.708224004849	10
0	1854	2811.451129894526	9
0	1857	2812.378848443715	10
0	1859	2812.910813501012	9
0	1862	2813.18884705133	8
0	1865	2815.378904848005	9
0	1867	2815.592002924085	8
0	1870	2817.856190808731	7
0	1873	2818.634818917619	6
0	1875	2819.886478401386	5
0	1877	2820.450487986709	6
0	1880	2821.957794576118	7
0	1883	2824.551273838943	8
0	1885	2832.017279501227	7
0	1888	2833.744477937375	6
0	1890	2836.049151128883	5
0	1892	2838.587182115736	4
0	1894	2843.260311083282	5
0	1897	2843.506125005389	6
0	1900	2852.401110164759	7
0	1903	2859.694131644549	8
0	1905	2859.725635164849	7
0	1908	2865.552505447404	8
0	1910	2868.205240072017	9
0	1912	2869.067138582091	10
0	1914	2869.117446444658	9
0	1917	2872.14858942404	10
0	1919	2872.19908770352	9
0	1922	2872.354357454277	10
0	1924	2878.30513473979	9
0	1927	2883.47806712645	8
0	1930	2883.985557407687	9
0	1932	2887.254373465834	8
0	1935	2887.33259793504	9
0	1937	2889.02635439804	10
0	1939	2891.021635702162	9
0	1942	2894.664289663977	10
0	1944	2898.619059579918	11
0	1946	2901.059112246451	10
0	1949	2902.392325319551	11
0	1951	2907.544020104508	10
0	1954	2908.079773968534	9
0	1957	2908.08509790068	8
0	1960	2909.900209417955	7
0	1963	2909.965091262117	6
0	1965	2912.438897143287	5
0	1967	2912.519571380278	4
0	1969	2913.465633878177	5
0	1972	2914.401061195996	4
0	1974	2918.640354502888	3
0	1976	2922.202223534799	4
0	1979	2923.25668167218	3
0	1981	2926.278624296139	4
0	1984	2927.453039460944	3
0	1986	2928.097456052909	2
0	1988	2930.09284567507	3
0	1991	2932.931951341016	4
0	1994	2933.38811306789	5
0	1997	2933.967312606351	4
0	1999	2938.360095830821	3
0	2001	2939.959944969582	2
0	2003	2941.882892499921	3
0	2006	2953.090713766732	2
0	2008	2980.918696783374	3
0	2011	2984.25189303572	4
0	2014	2984.895311970035	3
0	2016	2987.410709882824	4
0	2019	2994.257891654309	3
0	2021	3002.177522019992	2
0	2023	3015.077218378034	3
0	2026	3021.850080089256	4
0	2029	3024.82394915205	3
0	2031	3027.601179128415	4
0	2034	3039.650030849916	5
0	2037	3046.142509573577	4
0	2039	3048.589418570649	3
0	2041	3053.555028591084	2
0	2043	3059.80275394275	3
0	2046	3072.296795236962	4
0	2049	3074.121517146057	5
0	2052	3074.156121730477	6
0	2055	3074.46306446556	5
0	2057	3079.911526754527	6
0	2060	3082.85905987189	7
0	2063	3085.920742143491	6
0	2065	3089.71508036289	5
0	2067	3093.458671159393	4
0	2069	3098.665769025635	3
0	2071	3106.168003731024	4
0	2074	3106.495133552052	3
0	2076	3106.716445804759	2
0	2078	3119.929415261663	3
0	2081	3134.711988878847	4
0	2084	3135.223713061708	3
0	2086	3135.290432970315	4
0	2089	3152.625060166524	5
0	2092	3156.133558948234	6
0	2095	3156.344050374933	5
0	2097	3156.699372986275	6
0	2100	3159.299508685715	5
0	2102	3161.33354241627	4
0	2104	3167.39218209616	3
0	2106	3167.864537426831	2
0	2108	3168.909058127715	3
0	2111	3169.540638504694	4
0	2114	3169.929382871761	3
0	2116	3175.286005181146	4
0	2119	3175.80235608206	3
0	2121	3177.176536535738	4
0	2124	3177.74805809635	5
0	2127	3184.217078989056	6
0	2130	3189.175681088316	5
0	2132	3205.158284663641	4
0	2134	3217.231779195207	3
0	2136	3231.359645120052	2
0	2138	3232.546824283918	3
0	2141	3245.346644309833	4
0	2144	3252.429165969807	5
0	2147	3254.449620688548	6
0	2150	3257.186630242079	5
0	2152	3257.489848545898	6
0	2155	3271.747839146154	7
0	2158	3273.501880599115	8
0	2160	3274.990760354756	7
0	2163	3278.180410833681	6
0	2165	3278.55824815362	7
0	2168	3283.979460582791	6
0	2170	3285.863660769642	5
0	2172	3298.926418250088	4
0	2174	3299.733616601425	3
0	2176	3300.030691081815	4
0	2179	3300.950500878693	3
0	2181	3304.923518650012	2
0	2183	3306.547439880588	3
0	2186	3314.013733836163	4
0	2189	3314.747891270102	3
0	2191	3325.640438576287	4
0	2194	3330.779575025949	3
0	2196	3363.199819217885	4
0	2199	3364.351735275235	3
0	2201	3376.069972407545	4
0	2204	3389.199306964015	5
0	2207	3390.719227344321	4
0	2209	3393.291334438625	3
0	2211	3395.197645691396	4
0	2214	3398.881284742884	5
0	2217	3403.152491838723	4
0	2219	3405.924326623354	3
0	2221	3406.380492539099	4
0	2224	3406.53554744345	3
0	2226	3407.069800996267	4
0	2229	3408.3815852084	5
0	2232	3415.771686642087	6
0	2235	3420.42308778873	5
0	2237	3432.019211451141	4
0	2239	3434.550678280139	5
0	2242	3434.632744288273	6
0	2245	3435.461177661055	5
0	2247	3438.324919600615	6
0	2250	3441.154264112095	7
0	2253	3448.505327267046	8
0	2255	3451.743774760538	9
0	2257	3454.795365110872	10
0	2259	3455.705441774027	9
0	2262	3467.781266382076	8
0	2265	3469.841741007146	9
0	2267	3473.054844225962	10
0	2269	3477.117727324071	9
0	2272	3487.735950190629	8
0	2275	3491.342090165459	7
0	2278	3496.2611872389	8
0	2280	3498.696225437401	9
0	2282	3505.127181259732	10
0	2284	3508.814965640228	9
0	2287	3513.252897364865	8
0	2290	3513.506786722391	7
0	2293	3517.066743916347	8
0	2295	3521.999200112765	7
0	2298	3522.68284507465	8
0	2300	3523.767188897457	7
0	2303	3526.655302276172	8
0	2305	3530.003163703753	7
0	2308	3530.196138952483	8
0	2310	3530.781069473351	9
0	2312	3532.510658334786	8
0	2315	3533.375891519393	7
0	2318	3533.45964289075	6
0	2320	3539.048143064952	7
0	2323	3540.595534448782	6
0	2325	3547.406943352087	7
0	2328	3550.654931435269	8
0	2330	3554.253813134884	7
0	2333	3555.409256441648	6
0	2335	3556.359162280928	5
0	2337	3566.990696351604	4
0	2339	3568.46268997636	5
0	2342	3570.989728981841	4
0	2344	3576.684221616835	3
0	2346	3586.88233012997	2
0	2348	3590.86230337445	3
0	2351	3595.438405775929	2
0	2353	3608.149542937022	1
0	2355	3612.389473517506	2
0	2358	3614.967918425427	1
0	2360	3619.89277063902	2
0	2363	3623.332625558162	3
0	2366	3625.161797657976	4
0	2369	3625.782118941443	5
0	2372	3629.055782351287	6
0	2375	3629.514031716035	7
0	2378	3631.68971299153	6
0	2380	3632.78422081589	5
0	2382	3633.515185157359	6
0	2385	3636.530539808453	5
0	2387	3644.393344144542	4
0	2389	3649.796784546124	5
0	2392	3652.182031072514	6
0	2395	3653.450965969692	5
0	2397	3665.28546795283	6
0	2400	3668.094730684884	5
0	2402	3670.710725290353	6
0	2405	3675.66645851001	5
0	2407	3677.031300424471	4
0	2409	3680.46996820379	5
0	2412	3683.89895406232	6
0	2415	3686.561552283852	5
0	2417	3689.266034270806	6
0	2420	3690.05227420821	7
0	2423	3695.669283357598	8
0	2425	3705.3519929961	9
0	2427	3709.851187021338	10
0	2429	3711.384654882788	9
0	2432	3717.836281305936	10
0	2434	3720.13116729617	9
0	2437	3726.349394595082	8
0	2440	3728.542566216353	7
0	2443	3730.690170038392	6
0	2445	3733.079936015847	5
0	2447	3735.994591125705	6
0	2450	3741.768934183213	5
0	2452	3744.313998116665	4
0	2454	3745.192172799704	5
0	2457	3746.771434142594	4
0	2459	3752.994586765837	3
0	2461	3759.891669941309	2
0	2463	3771.303767917434	3
0	2466	3777.989773364095	4
0	2469	3788.839551435511	3
0	2471	3791.618512043539	4
0	2474	3793.261557227935	5
0	2477	3793.407780788229	6
0	2480	3800.35206562841	7
0	2483	3802.265652093348	6
0	2485	3802.813697767825	5
0	2487	3803.624395428466	6
0	2490	3808.735055172156	5
0	2492	3821.341579861413	6
0	2495	3821.93966925794	7
0	2498	3824.004141365752	8
0	2500	3826.656841014929	9
0	2502	3831.959726787369	8
0	2505	3833.496478326171	9
0	2507	3836.679673462049	10
0	2509	3840.146056540455	9
0	2512	3841.868591664493	8
0	2515	3846.425850751306	9
0	2517	3846.815833571744	8
0	2520	3847.765057041208	7
0	2523	3855.383498346485	6
0	2525	3863.764751077901	7
0	2528	3873.935444358915	6
0	2530	3885.653959732155	7
0	2533	3903.198092706666	8
0	2535	3907.18896068916	7
0	2538	3909.061870302531	6
0	2540	3909.062362280156	7
0	2543	3911.954349533696	6
0	2545	3918.263868631556	7
0	2548	3927.363646188529	8
0	2550	3934.228537186067	7
0	2553	3939.867516734685	8
0	2555	3939.88223284318	7
0	2558	3943.052684771755	6
0	2560	3945.990784756032	7
0	2563	3946.29815210271	8
0	2565	3946.750819831758	7
0	2568	3946.784340613694	8
0	2570	3951.3719524225	9
0	2572	3957.851834495508	8
0	2575	3959.113034229149	7
0	2578	3964.713336247796	6
0	2580	3970.107038788896	7
0	2583	3970.395259979646	6
0	2585	3976.01666447188	7
0	2588	3978.874855885558	6
0	2590	3980.498088232347	7
0	2593	3980.999898078339	6
0	2595	3994.108230486267	7
0	2598	4008.135819827476	6
0	2600	4019.953561695129	7
0	2603	4020.825543026715	8
0	2605	4030.380359060064	7
0	2608	4033.735469956076	8
0	2610	4038.903223106112	7
0	2613	4045.15399065726	8
0	2615	4045.1960735815	9
0	2617	4048.073144784336	8
0	2620	4052.681853221462	7
0	2623	4056.764339634979	6
0	2625	4060.702417894102	7
0	2628	4060.91898296888	6
0	2630	4071.713479296874	5
0	2632	4081.26280066522	6
0	2635	4084.378232777565	5
0	2637	4089.539270228134	4
0	2639	4090.0451988089	5
0	2642	4091.873491038927	6
0	2645	4092.752246830904	5
0	2647	4099.95442082174	6
0	2650	4104.159164383083	7
0	2653	4110.534906889003	6
0	2655	4119.255576640079	5
0	2657	4125.698889601275	4
0	2659	4126.324539076504	3
0	2661	4126.410769078893	2
0	2663	4133.416303632737	1
0	2665	4136.571024831629	2
0	2668	4139.201313931293	3
0	2671	4140.940282391857	2
0	2673	4142.486655558739	3
0	2676	4150.143140789928	2
0	2678	4160.894777159558	1
0	2680	4173.184781096987	2
0	2683	4191.829589195273	3
0	2686	4208.603289080245	4
0	2689	4209.611421024792	5
0	2692	4228.253779507466	6
0	2695	4231.081839431523	7
0	2698	4232.575180879055	8
0	2700	4233.591041574578	7
0	2703	4236.612348597276	6
0	2705	4237.908434595709	7
0	2708	4239.347262928968	8
0	2710	4241.80305504727	9
0	2712	4245.923236600545	8
0	2715	4247.895583556739	7
0	2718	4249.440067355426	6
0	2720	4255.536959849243	5
0	2722	4259.0810955824	4
0	2724	4261.077122242871	3
0	2726	4262.480098481684	4
0	2729	4263.294640707651	5
0	2732	4264.711500553933	4
0	2734	4270.991181531051	3
0	2736	4279.70365962384	2
0	2738	4281.761421026023	1
0	2740	4286.28272655589	2
0	2743	4291.256300514541	3
0	2746	4299.91976687537	2
0	2748	4304.852320033233	3
0	2751	4307.264203948225	2
0	2753	4311.787324276281	3
0	2756	4324.569219433549	4
0	2759	4330.352009799724	5
0	2762	4336.873944095969	6
0	2765	4337.82520712519	7
0	2768	4340.21419185467	6
0	2770	4341.313330369904	5
0	2772	4344.553918640118	6
0	2775	4345.005084187206	5
0	2777	4356.401492161551	4
0	2779	4358.562071007701	5
0	2782	4361.162046822259	6
0	2785	4369.673142518445	5
0	2787	4377.902694455247	4
0	2789	4380.160189713471	5
0	2792	4384.520573905395	4
0	2794	4384.639625579347	5
0	2797	4392.122833704433	6
0	2800	4397.094313336071	5
0	2802	4400.104799062816	4
0	2804	4406.349280662209	5
0	2807	4407.703185713636	4
0	2809	4409.601912225427	5
0	2812	4410.269250053852	4
0	2814	4415.00825086024	3
0	2816	4432.360315248584	4
0	2819	4432.410401647086	3
0	2821	4434.709039248138	4
0	2824	4435.886488515436	5
0	2827	4439.637868037856	6
0	2830	4444.055327926523	5
0	2832	4444.112789488732	4
0	2834	4471.771987006356	3
0	2836	4476.130786583418	4
0	2839	4484.447526713968	5
0	2842	4486.029780623359	4
0	2844	4491.497900747477	3
0	2846	4509.80291194881	2
0	2848	4512.09359631913	3
0	2851	4516.246874580794	2
0	2853	4518.954040648129	3
0	2856	4525.754167067833	2
0	2858	4529.933857923733	1
0	2860	4530.592399938965	0
0	2862	4534.038693181125	1
0	2865	4549.93496420887	2
0	2868	4560.306011411799	3
0	2871	4561.421102014477	2
0	2873	4562.858926821523	3
0	2876	4571.437611444681	4
0	2879	4571.611526178902	5
0	2882	4572.70002358701	6
0	2885	4581.541596828958	5
0	2887	4585.044981230302	4
0	2889	4585.33038522151	5
0	2892	4587.307998350069	6
0	2895	4589.094173928173	7
0	2898	4594.77490644283	6
0	2900	4598.444756984259	5
0	2902	4598.835942645994	4
0	2904	4612.36493165337	5
0	2907	4625.545730613414	4
0	2909	4629.926663423718	3
0	2911	4638.670509118858	4
0	2914	4639.634818099647	3
0	2916	4655.283917190652	4
0	2919	4664.601177942821	3
0	2921	4667.242546534743	2
0	2923	4667.889913441273	1
0	2925	4670.802120755253	2
0	2928	4684.498519170744	3
0	2931	4685.200544776662	4
0	2934	4685.369539227568	5
0	2937	4685.787935233117	6
0	2940	4693.286135979037	5
0	2942	4695.361490606956	4
0	2944	4698.243794954219	5
0	2947	4699.482563307812	4
0	2949	4701.701069668564	3
0	2951	4701.801762857252	2
0	2953	4713.121435397052	3
0	2956	4717.114215798064	4
0	2959	4719.318839177324	5
0	2962	4722.33607731286	4
0	2964	4728.952817113741	5
0	2967	4737.079711148742	4
0	2969	4738.171037419049	5
0	2972	4740.029598296902	6
0	2975	4750.558547212765	5
0	2977	4751.705304139995	4
0	2979	4757.223414060175	5
0	2982	4770.467045015275	4
0	2984	4772.650972793995	5
0	2987	4773.912845035567	4
0	2989	4783.314721625306	5
0	2992	4785.002018540042	4
0	2994	4788.517558499791	3
0	2996	4789.245071304809	4
0	2999	4792.818409952285	3
0	3001	4797.130661757025	4
0	3004	4797.171667726349	5
0	3007	4798.075211917878	6
0	3010	4798.15591175933	5
0	3012	4800.026459506394	6
0	3015	4800.578364757686	7
0	3018	4802.447592085283	6
0	3020	4803.094693606618	5
0	3022	4806.939771775127	6
0	3025	4807.21348342358	7
0	3028	4807.551370560888	6
0	3030	4807.672693885316	5
0	3032	4809.452945610157	6
0	3035	4814.518153279134	5
0	3037	4814.936760538742	4
0	3039	4817.821324360198	3
0	3041	4822.645733236862	2
0	3043	4823.865031961016	1
0	3045	4827.123832244846	2
0	3048	4835.401959101883	3
0	3051	4846.194925401585	4
0	3054	4849.757631996103	5
0	3057	4855.266368935885	6
0	3060	4856.540583005184	7
0	3063	4858.292968563566	8
0	3065	4862.22480469859	9
0	3067	4864.557057670547	8
0	3070	4865.82057761728	9
0	3072	4868.924331561603	8
0	3075	4887.793385631319	7
0	3078	4889.217224788312	6
0	3080	4889.575058933761	7
0	3083	4897.178226984996	6
0	3085	4899.180458881098	5
0	3087	4901.897685588505	4
0	3089	4901.922420014081	3
0	3091	4907.36496196724	4
0	3094	4908.256098878122	3
0	3096	4909.40586658959	4
0	3099	4913.80950330259	5
0	3102	4918.340516080651	4
0	3104	4920.919922943325	3
0	3106	4924.62606730737	4
0	3109	4924.966013540649	5
0	3112	4925.52875064002	6
0	3115	4928.121253583618	7
0	3118	4940.482973290451	6
0	3120	4942.452574989276	7
0	3123	4942.555376585682	8
0	3125	4943.343933106404	7
0	3128	4951.66531232339	8
0	3130	4952.910684645757	7
0	3133	4956.488566363073	6
0	3135	4958.718949762855	7
0	3138	4965.653106635273	6
0	3140	4966.472291217168	5
0	3142	4968.137409289927	6
0	3145	4971.800681626143	5
0	3147	4974.96797882828	4
0	3149	4977.398996231467	3
0	3151	4983.842381081339	4
0	3154	4990.538293729925	5
0	3157	4991.666980229796	4
0	3159	4997.407684446716	3
0	3161	5021.410557393005	2
0	3163	5023.757040561875	3
0	3166	5036.383581100574	4
0	3169	5053.491804266184	5
0	3172	5055.040374134498	4
0	3174	5065.046833306798	5
0	3177	5066.306101954981	4
0	3179	5068.53466439874	5
0	3182	5072.655622382294	6
0	3185	5072.753009804806	5
0	3187	5072.875325341612	4
0	3189	5090.583220540054	3
0	3191	5097.075569467639	4
0	3194	5102.699402363402	5
0	3197	5107.126322907777	6
0	3200	5117.823121449749	5
0	3202	5127.152152765296	4
0	3204	5130.053245709205	3
0	3206	5132.765907788924	2
0	3208	5133.58665449488	1
0	3210	5144.166083716398	2
0	3213	5154.375409682721	3
0	3216	5155.639663045044	4
0	3219	5157.408264281536	5
0	3222	5158.885671576654	6
0	3225	5161.238674731032	7
0	3228	5162.605353546457	6
0	3230	5172.329005805655	5
0	3232	5177.319287195825	6
0	3235	5178.513308449767	7
0	3238	5178.697652608722	6
0	3240	5189.557963130667	5
0	3242	5190.483258827263	4
0	3244	5197.304956655929	3
0	3246	5203.38653183898	2
0	3248	5211.576078232705	3
0	3251	5217.93770576638	4
0	3254	5229.800094396054	3
0	3256	5231.688175822814	4
0	3259	5235.207450841754	5
0	3262	5242.657589377167	4
0	3264	5244.738583607254	3
0	3266	5245.921859855559	2
0	3268	5255.726577619376	3
0	3271	5258.339375564577	4
0	3274	5273.230079706946	5
0	3277	5273.667978003931	6
0	3280	5273.986940382197	5
0	3282	5274.107096825508	4
0	3284	5288.706069005514	5
0	3287	5288.988993878103	4
0	3289	5311.194488158022	3
0	3291	5313.286141054911	4
0	3294	5318.281210128897	5
0	3297	5318.806040479819	4
0	3299	5328.994001866755	5
0	3302	5331.124832106133	4
0	3304	5332.939432241282	3
0	3306	5341.815729780905	2
0	3308	5342.688845854033	3
0	3311	5349.600975685698	4
0	3314	5355.380998874209	3
0	3316	5357.974981705353	4
0	3319	5364.565562619363	5
0	3322	5365.469921491949	4
0	3324	5367.538145622425	5
0	3327	5376.656294527178	6
0	3330	5377.225039118116	5
0	3332	5384.714954386727	6
0	3335	5397.41405178013	7
0	3338	5398.361521597971	6
0	3340	5398.598774077288	7
0	3343	5400.369637221209	6
0	3345	5401.594208839853	7
0	3348	5402.02501404674	8
0	3350	5407.90814805452	9
0	3352	5408.843916493562	10
0	3354	5418.340496496225	9
0	3357	5427.870703570882	10
0	3359	5431.592778796326	11
0	3361	5440.478709206004	10
0	3364	5441.56860438999	9
0	3367	5443.730047510188	8
0	3370	5449.670594700566	7
0	3373	5456.386881911704	6
0	3375	5457.376875286172	5
0	3377	5465.574060195588	6
0	3380	5474.501462386051	5
0	3382	5475.22994141822	4
0	3384	5481.849408258842	3
0	3386	5492.483346196532	4
0	3389	5494.598995877649	5
0	3392	5495.072064386261	4
0	3394	5496.946372879964	5
0	3397	5500.398526583158	6
0	3400	5503.522347331761	7
0	3403	5509.732520771099	8
0	3405	5510.966751933882	9
0	3407	5511.704287011534	8
0	3410	5514.478193327188	7
0	3413	5515.950493396641	6
0	3415	5519.575879943198	7
0	3418	5525.70161447046	6
0	3420	5529.497004222846	7
0	3423	5535.212580129692	6
0	3425	5535.676276123516	5
0	3427	5542.415567782073	4
0	3429	5542.913861199301	5
0	3432	5549.709782404804	4
0	3434	5551.224970272077	3
0	3436	5551.256306347616	2
0	3438	5555.03923586866	1
0	3440	5555.275326294815	2
0	3443	5564.78711763659	3
0	3446	5565.454894122926	2
0	3448	5568.875781737325	3
0	3451	5570.684181867403	4
0	3454	5572.537650459714	3
0	3456	5575.775655992252	4
0	3459	5578.342613465076	3
0	3461	5585.372916172762	2
0	3463	5586.25476872737	3
0	3466	5588.829274919763	4
0	3469	5589.113241983502	3
0	3471	5597.618918869278	2
0	3473	5597.888115356049	3
0	3476	5603.180636660317	4
0	3479	5603.349707732811	3
0	3481	5605.623933585102	2
0	3483	5611.200831566105	1
0	3485	5619.408587262327	2
0	3488	5622.211360512958	1
0	3490	5625.826508001239	2
0	3493	5626.96635006915	3
0	3496	5627.73770710779	2
0	3498	5628.226717057139	3
0	3501	5632.52427562582	2
0	3503	5645.08674735819	3
0	3506	5645.268650489208	2
0	3508	5647.031753872648	3
0	3511	5651.679551976453	4
0	3514	5653.87501228827	3
0	3516	5655.077138246769	4
0	3519	5666.782688548398	5
0	3522	5672.533510061397	6
0	3525	5675.613388070401	5
0	3527	5678.956078447444	4
0	3529	5688.062606901241	5
0	3532	5690.333787741079	4
0	3534	5691.656603155228	3
0	3536	5700.833780941078	4
0	3539	5700.953232957215	5
0	3542	5702.88742101931	6
0	3545	5703.947074945672	7
0	3548	5710.563987125135	8
0	3550	5712.103114525073	7
0	3553	5726.842158142771	8
0	3555	5727.333737991118	9
0	3557	5727.799901973099	8
0	3560	5730.497149918717	7
0	3563	5733.204795720475	8
0	3565	5741.349431229505	7
0	3568	5753.768246295937	6
0	3570	5756.596066610552	5
0	3572	5760.293623924509	4
0	3574	5763.295583112301	5
0	3577	5767.705988440548	6
0	3580	5779.677753415567	5
0	3582	5782.390903183926	6
0	3585	5782.759358173135	7
0	3588	5784.512408922646	6
0	3590	5785.663837279232	5
0	3592	5789.893512535748	6
0	3595	5791.874428851611	5
0	3597	5800.206867540492	4
0	3599	5801.87746666631	3
0	3601	5802.954132041955	4
0	3604	5805.076144833246	5
0	3607	5812.369108089013	6
0	3610	5813.326389062385	5
0	3612	5813.629605060629	6
0	3615	5815.007852709254	5
0	3617	5818.804774566678	4
0	3619	5819.606614593997	3
0	3621	5821.149515323445	2
0	3623	5824.083953983045	1
0	3625	5836.563497329883	2
0	3628	5847.299948542365	3
0	3631	5848.053117567548	4
0	3634	5851.244171735672	3
0	3636	5855.005337645882	2
0	3638	5863.008401062555	3
0	3641	5869.418683720214	4
0	3644	5876.933477153828	3
0	3646	5878.94493821466	2
0	3648	5890.090010667556	3
0	3651	5898.586283543317	4
0	3654	5905.54395586926	5
0	3657	5907.112301690927	4
0	3659	5908.258030799254	3
0	3661	5916.84948095452	4
0	3664	5920.340117097434	5
0	3667	5920.798464803959	4
0	3669	5926.477533950013	3
0	3671	5946.425941598452	4
0	3674	5954.921420017258	3
0	3676	5959.604247318315	4
0	3679	5959.769966072544	3
0	3681	5967.812006544387	4
0	3684	5972.353545926953	3
0	3686	5980.654439516869	2
0	3688	5983.107339830703	3
0	3691	5986.349014971068	2
0	3693	5987.26607149442	3
0	3696	6003.90737261858	2
0	3698	6008.841519578713	1
0	3700	6029.76032244448	2
0	3703	6032.973882364953	3
0	3706	6035.220363507343	4
0	3709	6037.455618205318	3
0	3711	6042.923281432223	2
0	3713	6046.384402253121	3
0	3716	6049.068439350729	2
0	3718	6053.766799945559	1
0	3720	6063.903208003725	0
0	3722	6067.856227593695	1
0	3725	6073.639015127723	2
0	3728	6092.344245060001	3
0	3731	6099.686652298973	4
0	3734	6099.956992162352	5
0	3737	6101.232938425576	6
0	3740	6107.350092689856	5
0	3742	6107.525840655903	6
0	3745	6109.517010816897	7
0	3748	6125.332022363085	6
0	3750	6126.151285904052	7
0	3753	6128.422409166951	6
0	3755	6136.110301612894	5
0	3757	6137.922865398787	6
0	3760	6138.721533002401	5
0	3762	6156.551412773884	6
0	3765	6162.644647259957	7
0	3768	6165.476494865308	8
0	3770	6166.736431520171	7
0	3773	6171.125556311658	6
0	3775	6175.333809743665	7
0	3778	6177.543174016645	8
0	3780	6178.326127570339	7
0	3783	6181.018455025731	6
0	3785	6184.366312075488	5
0	3787	6185.071707159904	6
0	3790	6185.394357328878	7
0	3793	6186.560411387669	6
0	3795	6186.72909051641	7
0	3798	6187.801155336042	6
0	3800	6195.943377817059	5
0	3802	6197.10972495203	4
0	3804	6203.668199677628	5
0	3807	6214.486024291032	6
0	3810	6216.210974354991	5
0	3812	6216.89340441498	6
0	3815	6217.941081582934	5
0	3817	6223.558715583886	4
0	3819	6225.39597423173	5
0	3822	6226.827974311713	6
0	3825	6234.228453346165	7
0	3828	6239.296813437242	6
0	3830	6241.388168026773	5
0	3832	6244.192534673922	4
0	3834	6251.421150543107	3
0	3836	6255.76844676752	2
0	3838	6256.375169754692	3
0	3841	6256.985897177583	4
0	3844	6259.742807270126	3
0	3846	6264.473865365025	2
0	3848	6268.021416520243	1
0	3850	6275.265763228391	0
0	3852	6295.356261708375	1
0	3855	6300.789970130882	2
0	3858	6307.478800607736	1
0	3860	6308.405722602291	2
0	3863	6311.864845002534	3
0	3866	6312.240848446857	2
0	3868	6312.745812470037	3
0	3871	6314.46587820902	4
0	3874	6315.235022354157	5
0	3877	6321.448341225215	4
0	3879	6322.00102349077	5
0	3882	6322.341081788807	4
0	3884	6336.421727245392	5
0	3887	6338.07813449964	4
0	3889	6339.956069045735	5
0	3892	6344.436233815969	4
0	3894	6346.618362206375	3
0	3896	6347.125293678073	4
0	3899	6350.467949820212	3
0	3901	6350.94907642576	4
0	3904	6353.487973142408	5
0	3907	6358.336015502119	4
0	3909	6359.559820876899	5
0	3912	6363.12914342765	4
0	3914	6363.692394600739	3
0	3916	6370.134025682876	4
0	3919	6377.052405652274	5
0	3922	6384.677198630112	4
0	3924	6388.430765022738	5
0	3927	6389.576266571882	4
0	3929	6389.659477158845	5
0	3932	6393.176521829394	4
0	3934	6397.031013940203	5
0	3937	6399.306380619539	6
0	3940	6406.952600318811	7
0	3943	6409.225616894616	6
0	3945	6411.555709742972	5
0	3947	6422.862870112746	4
0	3949	6427.523656442734	3
0	3951	6433.113705851136	4
0	3954	6433.183419344794	5
0	3957	6434.73033643163	6
0	3960	6435.167305554773	5
0	3962	6439.112655058949	4
0	3964	6444.836613566448	3
0	3966	6449.630670547928	4
0	3969	6457.637673390783	5
0	3972	6472.634384333828	6
0	3975	6477.021950188404	7
0	3978	6477.962011256031	6
0	3980	6480.112212650494	5
0	3982	6484.530552605551	6
0	3985	6489.446697908564	5
0	3987	6489.826769755666	4
0	3989	6493.865295890158	5
0	3992	6494.545855351771	6
0	3995	6496.392181607157	7
0	3998	6497.282447414148	6
0	4000	6500.859177143468	5
0	4002	6502.705837675278	4
0	4004	6503.398613353849	5
0	4007	6504.62076601763	6
0	4010	6512.572681093947	7
0	4013	6518.935099494735	8
0	4015	6523.591760753195	9
0	4017	6530.836430332741	8
0	4020	6536.106635673623	7
0	4023	6536.346809152383	8
0	4025	6536.771983355544	7
0	4028	6537.019512544882	6
0	4030	6538.288950992769	5
0	4032	6541.194800226443	4
0	4034	6544.974401883028	5
0	4037	6546.580357259118	6
0	4040	6555.053053659813	5
0	4042	6560.673045281527	4
0	4044	6565.429743406717	5
0	4047	6566.283199581594	4
0	4049	6581.026506638288	3
0	4051	6582.426600372343	4
0	4054	6582.540396602588	5
0	4057	6584.846096930289	4
0	4059	6591.161736734199	5
0	4062	6595.410136135719	6
0	4065	6601.684214595534	5
0	4067	6601.921233257493	4
0	4069	6606.394051784759	5
0	4072	6607.751933508969	4
0	4074	6609.048886565129	5
0	4077	6611.089569724809	6
0	4080	6613.596726860585	5
0	4082	6620.431033934848	4
0	4084	6625.877330747449	5
0	4087	6627.797362945025	4
0	4089	6631.611228406806	5
0	4092	6637.427656522704	4
0	4094	6642.461570279903	5
0	4097	6642.566463520503	4
0	4099	6644.053835453148	5
0	4102	6647.164050645991	6
0	4105	6651.117800476506	5
0	4107	6652.175430857701	6
0	4110	6656.971307296131	5
0	4112	6657.252737078534	4
0	4114	6658.685804521119	3
0	4116	6659.329276433691	2
0	4118	6671.201640552712	1
0	4120	6676.659046335387	2
0	4123	6677.093834133452	1
0	4125	6686.311448413372	2
0	4128	6689.257477459236	3
0	4131	6693.525230291215	4
0	4134	6700.668978643907	5
0	4137	6705.748535111021	6
0	4140	6710.079468751712	7
0	4143	6712.892884451605	6
0	4145	6718.607885135708	5
0	4147	6720.00430905774	6
0	4150	6724.44521309305	7
0	4153	6725.769714753052	6
0	4155	6726.850787646691	7
0	4158	6727.930228582095	6
0	4160	6734.167904499621	5
0	4162	6735.596096086428	6
0	4165	6737.415096308864	5
0	4167	6758.433690704383	6
0	4170	6767.396801199034	5
0	4172	6768.033909732227	4
0	4174	6768.795439420494	5
0	4177	6774.139806478845	6
0	4180	6778.490262052427	5
0	4182	6784.250661530156	6
0	4185	6790.936705380756	5
0	4187	6792.991347367642	6
0	4190	6793.246221114866	7
0	4193	6801.19080555937	6
0	4195	6801.716266113819	7
0	4198	6805.196894243673	6
0	4200	6806.220888069564	5
0	4202	6807.572701546202	6
0	4205	6808.152000088362	7
0	4208	6809.312940837014	6
0	4210	6811.45760565356	5
0	4212	6813.89468747615	4
0	4214	6817.913858090803	3
0	4216	6824.785144817645	2
0	4218	6827.118843159141	1
0	4220	6827.265744663584	2
0	4223	6831.634771659206	1
0	4225	6841.063949658513	0
0	4227	6845.148323355037	1
0	4230	6847.004890303921	2
0	4233	6849.708668274641	3
0	4236	6850.201884298333	4
0	4239	6854.084877487437	3
0	4241	6856.726355037025	2
0	4243	6858.065626729866	3
0	4246	6868.928412496776	4
0	4249	6872.820145190259	5
0	4252	6875.351316263295	6
0	4255	6876.795457204802	7
0	4258	6877.709910574772	8
0	4260	6879.018982119529	7
0	4263	6883.57812206229	6
0	4265	6884.202089263842	5
0	4267	6884.607776453258	6
0	4270	6888.590069246854	5
0	4272	6889.835485097149	6
0	4275	6890.346683338959	5
0	4277	6891.358071879133	4
0	4279	6895.237107752992	5
0	4282	6896.850076914739	4
0	4284	6916.885878962306	3
0	4286	6918.611137215781	4
0	4289	6935.849631540667	3
0	4291	6936.94127798029	4
0	4294	6937.031994625253	3
0	4296	6954.475310273877	2
0	4298	6965.364214740388	3
0	4301	6976.786129333034	2
0	4303	6985.542908913527	3
0	4306	6987.380672690051	2
0	4308	6991.664075315481	3
0	4311	6998.775369220302	4
0	4314	7007.41728224594	3
0	4316	7019.879880671189	2
0	4318	7021.958577841927	1
0	4320	7052.003639898056	2
0	4323	7061.985366635501	3
0	4326	7065.189561861524	4
0	4329	7074.938304742215	3
0	4331	7078.841069944326	4
0	4334	7081.352831229677	5
0	4337	7089.906543954468	4
0	4339	7101.930320766319	3
0	4341	7104.716016313481	4
0	4344	7106.635850401036	3
0	4346	7110.938594896086	4
0	4349	7114.437137753294	5
0	4352	7114.62325540623	4
0	4354	7118.838778036107	3
0	4356	7123.472965199709	2
0	4358	7125.159540949142	1
0	4360	7125.73758250721	2
0	4363	7144.992588810129	3
0	4366	7146.790366369123	4
0	4369	7149.904156009113	5
0	4372	7154.959411305574	4
0	4374	7156.390617144678	5
0	4377	7157.889415722524	4
0	4379	7160.444591729542	3
0	4381	7168.359885846425	4
0	4384	7171.611521752316	3
0	4386	7178.577041429304	2
0	4388	7182.138057263076	1
0	4390	7182.722515299654	0
0	4392	7188.37029491808	1
0	4395	7190.315173625834	2
0	4398	7199.013052036617	3
0	4401	7200.308799629084	4
0	4404	7200.35384922546	3
0	4406	7202.060334855593	4
0	4409	7203.084573169962	3
0	4411	7204.600933519381	4
0	4414	7208.910472020633	3
0	4416	7214.683849890094	2
0	4418	7214.875163743108	3
0	4421	7216.511474677985	4
0	4424	7217.389474315384	5
0	4427	7217.579988077804	6
0	4430	7219.196181960981	5
0	4432	7220.507397824216	4
0	4434	7221.357880994602	5
0	4437	7222.48977293494	4
0	4439	7226.371758252314	5
0	4442	7228.419103543345	4
0	4444	7235.298972267392	3
0	4446	7263.90082401458	4
0	4449	7263.984680783936	3
0	4451	7282.704882113848	4
0	4454	7288.166612197979	5
0	4457	7298.170773041876	4
0	4459	7301.347363497182	5
0	4462	7304.850405417855	4
0	4464	7308.825697979784	3
0	4466	7314.860841925048	4
0	4469	7315.747214829742	5
0	4472	7315.90145428829	4
0	4474	7316.837246347976	3
0	4476	7317.094296697276	4
0	4479	7320.787294953872	5
0	4482	7328.972166321288	6
0	4485	7340.566366970447	7
0	4488	7345.336879267906	8
0	4490	7345.675054844174	7
0	4493	7346.942787278959	8
0	4495	7347.420409292842	9
0	4497	7348.512771537157	8
0	4500	7349.514782944933	7
0	4503	7351.364593170381	6
0	4505	7354.162717705869	7
0	4508	7357.001260566613	6
0	4510	7358.38595407955	5
0	4512	7363.840776056311	6
0	4515	7365.678355649312	5
0	4517	7374.039167608233	6
0	4520	7375.545308827645	7
0	4523	7381.701750844258	8
0	4525	7388.432308779668	9
0	4527	7391.309846079159	10
0	4529	7393.02228887365	9
0	4532	7396.200618199988	10
0	4534	7396.914375076126	9
0	4537	7398.793934912398	10
0	4539	7403.081914174195	9
0	4542	7408.817975045433	8
0	4545	7409.918930737832	7
0	4548	7423.894853961199	6
0	4550	7424.21945696087	7
0	4553	7426.613779478897	8
0	4555	7429.17598229293	7
0	4558	7430.183610734956	8
0	4560	7430.340616761736	7
0	4563	7430.837194854867	8
0	4565	7435.082437084979	7
0	4568	7438.77756740725	6
0	4570	7443.15469733453	5
0	4572	7444.523356457238	4
0	4574	7445.629334092595	3
0	4576	7446.528715591666	4
0	4579	7450.979373191017	3
0	4581	7453.062434845121	4
0	4584	7457.382716355519	3
0	4586	7458.028356761984	4
0	4589	7458.406436098788	5
0	4592	7466.664536983648	6
0	4595	7470.549580154328	5
0	4597	7470.563083517315	6
0	4600	7472.924147958313	5
0	4602	7474.566126389406	4
0	4604	7474.75524868215	5
0	4607	7480.175256576618	4
0	4609	7480.728424508042	5
0	4612	7482.747945500433	4
0	4614	7482.831145721315	3
0	4616	7484.687763776183	2
0	4618	7491.773372737343	1
0	4620	7508.722519569374	2
0	4623	7513.921712071563	3
0	4626	7521.439986934419	2
0	4628	7530.100841635173	3
0	4631	7533.025272881356	4
0	4634	7538.698487117369	5
0	4637	7539.06158932557	4
0	4639	7539.779011344906	3
0	4641	7543.665467180888	2
0	4643	7543.793921181066	3
0	4646	7544.384905582127	4
0	4649	7544.649268115355	3
0	4651	7546.491062163996	2
0	4653	7560.964921495344	3
0	4656	7562.710609779397	4
0	4659	7567.842600827549	5
0	4662	7568.579284359775	4
0	4664	7568.73691291002	5
0	4667	7570.469047363804	6
0	4670	7573.343419601761	5
0	4672	7595.673408205912	6
0	4675	7597.058733846364	7
0	4678	7619.41341404073	6
0	4680	7621.283016643831	7
0	4683	7624.468906220158	6
0	4685	7627.868654630982	7
0	4688	7634.217152118123	8
0	4690	7639.905377985174	9
0	4692	7640.174881319349	8
0	4695	7645.023723171437	9
0	4697	7645.907783857742	8
0	4700	7646.067021682856	9
0	4702	7648.828918905141	8
0	4705	7650.484765281694	7
0	4708	7651.413099136604	6
0	4710	7652.199351489584	7
0	4713	7663.643561778829	6
0	4715	7664.987812765463	7
0	4718	7668.261850409151	8
0	4720	7670.203399430808	7
0	4723	7673.340527723827	6
0	4725	7673.847831486544	5
0	4727	7674.89167422935	4
0	4729	7682.862984800383	5
0	4732	7686.168420181555	6
0	4735	7687.610121770651	7
0	4738	7688.142374841303	6
0	4740	7688.158646973251	7
0	4743	7693.946420230023	8
0	4745	7696.542259097064	9
0	4747	7697.851347396887	8
0	4750	7704.317375834521	7
0	4753	7706.502857802044	8
0	4755	7706.505709240054	7
0	4758	7709.151053551545	8
0	4760	7709.807743428606	9
0	4762	7709.957986031338	8
0	4765	7719.275507725907	9
0	4767	7722.160493211542	8
0	4770	7722.97498518002	9
0	4772	7727.760694282519	8
0	4775	7729.453007823065	9
0	4777	7734.263547101582	8
0	4780	7734.713084431782	7
0	4783	7735.998436105447	6
0	4785	7736.290970436533	7
0	4788	7738.327614385772	8
0	4790	7742.437374110221	7
0	4793	7746.724012578081	6
0	4795	7749.338052845711	5
0	4797	7752.257422916102	4
0	4799	7756.791049396031	5
0	4802	7756.994692691296	6
0	4805	7758.017808407695	5
0	4807	7759.457942894213	4
0	4809	7759.531993316729	3
0	4811	7759.969031870551	4
0	4814	7769.102874329777	5
0	4817	7770.230117847072	6
0	4820	7774.182342411775	5
0	4822	7777.241817585316	6
0	4825	7778.025633119459	7
0	4828	7781.093677430981	6
0	4830	7782.248464673677	5
0	4832	7792.351900669314	6
0	4835	7797.261836737223	5
0	4837	7797.778100228134	4
0	4839	7798.925157990754	5
0	4842	7800.970923817614	4
0	4844	7803.315849783817	3
0	4846	7803.955631966173	4
0	4849	7805.65372139519	3
0	4851	7807.632566923492	2
0	4853	7813.980700121025	3
0	4856	7814.990907093718	4
0	4859	7826.256194637933	5
0	4862	7827.013445215049	6
0	4865	7829.39691873223	5
0	4867	7832.359128375843	6
0	4870	7836.560729869742	7
0	4873	7843.848136378242	8
0	4875	7848.459391091115	9
0	4877	7875.204044602299	8
0	4880	7876.232834833608	7
0	4883	7881.621253685283	6
0	4885	7888.773353006447	7
0	4888	7890.670947451915	6
0	4890	7891.836689121018	5
0	4892	7891.901309726154	4
0	4894	7892.549768224981	5
0	4897	7895.10879867347	4
0	4899	7897.125414803729	5
0	4902	7899.328122693015	6
0	4905	7899.436670279306	7
0	4908	7902.446940991823	6
0	4910	7911.01332824911	7
0	4913	7914.998953824779	6
0	4915	7916.394991509328	7
0	4918	7916.780393601043	8
0	4920	7919.949407900629	7
0	4923	7920.668329059782	6
0	4925	7921.736699903309	5
0	4927	7925.339946739777	4
0	4929	7932.894359334692	5
0	4932	7941.93344029522	4
0	4934	7942.005837360366	5
0	4937	7960.68528758117	4
0	4939	7967.13058325123	3
0	4941	7971.778729275726	4
0	4944	7978.42602631797	3
0	4946	7984.806519144297	4
0	4949	7993.426871391261	3
0	4951	7997.071297541876	4
0	4954	7998.199119413925	3
0	4956	8003.720773358497	2
0	4958	8012.638890378147	1
0	4960	8014.811239363595	0
0	4962	8015.37375681657	1
0	4965	8025.683513261795	2
0	4968	8028.789031605708	3
0	4971	8028.927861597951	2
0	4973	8042.502682115387	1
0	4975	8045.700433019421	2
0	4978	8063.40145177593	3
0	4981	8064.533629480252	4
0	4984	8065.662467755747	3
0	4986	8071.006216794221	2
0	4988	8077.900042681916	3
0	4991	8084.903856585961	4
0	4994	8086.719076765188	3
0	4996	8087.818925655768	2
0	4998	8096.830986822849	3
0	5001	8097.812959095211	2
0	5003	8109.9788434027	3
0	5006	8113.719783874955	4
0	5009	8116.877339439853	5
0	5012	8117.366335052074	4
0	5014	8118.340931722269	3
0	5016	8120.332720826464	2
0	5018	8122.020485530915	1
0	5020	8132.411760788519	2
0	5023	8138.167545462682	3
0	5026	8151.731284493773	2
0	5028	8157.832074506179	1
0	5030	8174.244653021685	2
0	5033	8174.325128466849	3
0	5036	8179.935859786536	4
0	5039	8181.907689439136	3
0	5041	8184.585101489088	4
0	5044	8190.928576145191	3
0	5046	8200.733820304677	4
0	5049	8201.974125717323	3
0	5051	8205.520577963976	2
0	5053	8206.797038619518	1
0	5055	8207.314800765589	2
0	5058	8209.642917333283	1
0	5060	8210.832258198325	2
0	5063	8219.22340354983	1
0	5065	8220.235220696163	2
0	5068	8243.155844012481	1
0	5070	8246.007675919589	0
0	5072	8250.994444830648	1
0	5075	8253.289862218169	2
0	5078	8256.757719399352	3
0	5081	8264.65462608586	4
0	5084	8272.830248992951	5
0	5087	8277.054843375001	6
0	5090	8286.080306532928	7
0	5093	8287.352299553152	6
0	5095	8293.186789089773	5
0	5097	8311.258371121756	4
0	5099	8313.829409528843	3
0	5101	8317.435049867982	4
0	5104	8323.688747701259	5
0	5107	8340.365163224334	4
0	5109	8346.121976204429	5
0	5112	8355.075603434158	6
0	5115	8355.114139863274	5
0	5117	8357.998939103991	4
0	5119	8361.155452611335	3
0	5121	8366.358156576196	4
0	5124	8372.803847074039	5
0	5127	8373.270028226867	6
0	5130	8381.46887572112	7
0	5133	8381.634353712784	8
0	5135	8387.845834427161	7
0	5138	8391.266822592595	6
0	5140	8392.965139512894	5
0	5142	8394.815784557216	6
0	5145	8396.76234521463	7
0	5148	8397.566652569874	8
0	5150	8406.803921208352	9
0	5152	8412.308254870256	8
0	5155	8416.250887332793	7
0	5158	8417.439838916235	8
0	5160	8424.371840768776	7
0	5163	8429.046562159318	8
0	5165	8429.099058554891	9
0	5167	8431.999503035821	10
0	5169	8436.092128741428	11
0	5171	8437.978899778117	10
0	5174	8440.945414481629	11
0	5176	8441.299331358526	12
0	5178	8443.004750606658	13
0	5180	8445.94726841381	12
0	5183	8446.607395723797	11
0	5186	8454.255983396663	12
0	5188	8456.127346151977	11
0	5191	8456.568009235845	12
0	5193	8458.723100038199	11
0	5196	8467.974723263163	10
0	5199	8470.780980239049	11
0	5201	8471.46444963443	10
0	5204	8478.555121942335	11
0	5206	8480.746193976071	10
0	5209	8481.332572832339	9
0	5212	8490.717640159955	10
0	5214	8491.254828259857	9
0	5217	8498.415009117218	10
0	5219	8498.86778863941	9
0	5222	8501.891488071433	8
0	5225	8503.763240330995	9
0	5227	8521.427375718614	8
0	5230	8524.373567887896	9
0	5232	8527.970797352358	8
0	5235	8534.2353256545	7
0	5238	8536.491173855936	8
0	5240	8539.106698772395	9
0	5242	8539.916158400598	8
0	5245	8553.302092440764	9
0	5247	8554.250793963029	10
0	5249	8554.744147188676	9
0	5252	8561.972235468362	10
0	5254	8562.773842485522	9
0	5257	8565.447567295709	10
0	5259	8579.514178704527	11
0	5261	8582.345799408417	12
0	5263	8587.793576552902	11
0	5266	8589.77710227301	10
0	5269	8590.431520518713	11
0	5271	8591.382219785346	12
0	5273	8604.450588879864	11
0	5276	8607.698121410569	12
0	5278	8610.991330193754	11
0	5281	8612.888703737129	12
0	5283	8614.773254162542	13
0	5285	8617.639041157652	12
0	5288	8620.784780452302	13
0	5290	8624.065847036726	12
0	5293	8626.813013836676	11
0	5296	8629.131924506552	12
0	5298	8634.082869496032	13
0	5300	8638.531334045659	14
0	5302	8639.036264386624	13
0	5305	8642.936838677969	14
0	5307	8643.187263985821	13
0	5310	8656.988336464418	14
0	5312	8657.832960395045	15
0	5314	8662.366668518288	16
0	5316	8674.641081094587	15
0	5319	8677.030860599637	14
0	5322	8677.139480880279	13
0	5325	8677.665291191009	14
0	5327	8680.354039341973	15
0	5329	8680.78661563531	14
0	5332	8684.484077135774	13
0	5335	8685.919791687594	12
0	5338	8687.712272686293	11
0	5341	8691.048883853306	10
0	5344	8695.944810669694	9
0	5347	8702.303538303245	10
0	5349	8703.109639560465	9
0	5352	8705.691115888194	8
0	5355	8713.215144073274	7
0	5358	8713.292295346303	8
0	5360	8720.875505806773	7
0	5363	8721.256303902748	6
0	5365	8721.467160709789	5
0	5367	8722.893877142111	4
0	5369	8724.635830823846	5
0	5372	8729.36073410905	4
0	5374	8730.293709615003	3
0	5376	8730.579689177185	4
0	5379	8732.781194046459	5
0	5382	8733.428496750975	4
0	5384	8746.481720792007	3
0	5386	8754.343912893071	4
0	5389	8760.81904647656	3
0	5391	8768.699977398053	4
0	5394	8769.937740657688	3
0	5396	8772.097716947049	4
0	5399	8774.035717708192	3
0	5401	8777.990372620949	4
0	5404	8782.381838294994	3
0	5406	8785.367990812783	4
0	5409	8789.112198755977	3
0	5411	8789.392364467435	4
0	5414	8799.167374809026	3
0	5416	8802.356182199713	2
0	5418	8803.288329580021	1
0	5420	8803.56991694095	2
0	5423	8805.606930708033	1
0	5425	8806.179128551314	2
0	5428	8807.721910495085	3
0	5431	8807.962804031712	4
0	5434	8809.190717703828	5
0	5437	8810.874865508724	4
0	5439	8811.273620780866	3
0	5441	8819.135327909789	4
0	5444	8826.935844528908	5
0	5447	8828.804996247767	4
0	5449	8832.03374752	3
0	5451	8840.67091022496	4
0	5454	8841.816117203634	3
0	5456	8843.548195561349	2
0	5458	8847.984855727681	3
0	5461	8848.660925140094	4
0	5464	8856.456875159111	3
0	5466	8857.430914276491	4
0	5469	8863.307042546637	5
0	5472	8864.919189423688	4
0	5474	8866.350441856627	5
0	5477	8868.725822858688	6
0	5480	8870.507537154303	5
0	5482	8871.343666498567	4
0	5484	8871.428925540575	5
0	5487	8886.169667500135	4
0	5489	8891.100292007942	5
0	5492	8896.239642011119	6
0	5495	8904.707499573447	7
0	5498	8905.291617979811	8
0	5500	8905.821765679555	7
0	5503	8910.552011547217	6
0	5505	8913.219583747113	5
0	5507	8916.742114291572	4
0	5509	8918.601520362319	5
0	5512	8918.763077887355	6
0	5515	8925.859615390037	5
0	5517	8930.984391035642	6
0	5520	8935.252391186132	7
0	5523	8943.453159082265	6
0	5525	8946.734723203226	7
0	5528	8947.095739445727	8
0	5530	8949.868772932252	9
0	5532	8951.014505513718	10
0	5534	8955.532094702141	11
0	5536	8959.669028887021	12
0	5538	8961.476393101147	11
0	5541	8967.72610594671	10
0	5544	8968.378540550985	11
0	5546	8969.854555364082	12
0	5548	8970.147886218558	11
0	5551	8970.563187305567	12
0	5553	8973.206696692632	13
0	5555	8974.075473769593	14
0	5557	8976.844228459407	13
0	5560	8982.801831891021	14
0	5562	8983.05076314926	13
0	5565	8990.717007192998	14
0	5567	9000.977580325549	13
0	5570	9017.716092437266	12
0	5573	9018.383203924971	11
0	5576	9020.310060832415	10
0	5579	9023.77090037119	11
0	5581	9025.303256923497	10
0	5584	9028.820406064708	9
0	5587	9034.991291715213	10
0	5589	9038.581336663317	9
0	5592	9042.07963407765	8
0	5595	9042.43618016821	7
0	5598	9042.661710849975	6
0	5600	9044.191300121492	5
0	5602	9050.166260324372	4
0	5604	9053.597189573795	5
0	5607	9055.309742505163	4
0	5609	9061.450306538902	3
0	5611	9062.989627993709	4
0	5614	9063.789782086602	5
0	5617	9067.052149106746	4
0	5619	9067.322051256353	5
0	5622	9067.98897987485	6
0	5625	9071.984370517582	5
0	5627	9080.901651329524	4
0	5629	9086.261421162818	5
0	5632	9089.210730301214	6
0	5635	9099.373365578707	7
0	5638	9102.059811449851	8
0	5640	9106.868858517422	7
0	5643	9108.372678724545	8
0	5645	9108.667398508948	9
0	5647	9113.697263750994	10
0	5649	9119.471084637221	9
0	5652	9119.990625927689	8
0	5655	9135.755250020343	7
0	5658	9137.055145088874	8
0	5660	9141.774207724438	7
0	5663	9142.099090696499	8
0	5665	9143.326212667765	7
0	5668	9148.881328605452	8
0	5670	9158.120116546098	7
0	5673	9168.532760206386	8
0	5675	9170.484417959556	7
0	5678	9170.896714904375	6
0	5680	9171.713047087462	5
0	5682	9179.747099319191	6
0	5685	9184.986281806386	5
0	5687	9188.313013842242	6
0	5690	9201.982377917106	5
0	5692	9203.480314316771	4
0	5694	9205.150058307395	3
0	5696	9216.278731526733	4
0	5699	9217.753424233131	3
0	5701	9219.076043814273	4
0	5704	9226.401994414915	3
0	5706	9233.18882605987	4
0	5709	9243.979224577222	5
0	5712	9247.812610633754	4
0	5714	9247.937907899543	5
0	5717	9249.902412374041	4
0	5719	9259.662059937287	5
0	5722	9263.965530080204	6
0	5725	9267.744116560071	7
0	5728	9270.445554132432	8
0	5730	9270.879589156152	9
0	5732	9273.475467852019	8
0	5735	9274.623841978883	7
0	5738	9275.246485288557	8
0	5740	9279.442173373712	9
0	5742	9281.314377280538	10
0	5744	9283.123254015339	11
0	5746	9285.791277428371	12
0	5748	9293.454502443274	11
0	5751	9296.13764556522	12
0	5753	9308.419925539038	13
0	5755	9310.971981114847	12
0	5758	9312.566080086323	11
0	5761	9316.515040015169	10
0	5764	9320.238035981091	11
0	5766	9321.251545544333	10
0	5769	9325.81397586431	9
0	5772	9328.772966437648	8
0	5775	9329.764797262065	9
0	5777	9329.809557162157	10
0	5779	9332.634755949358	9
0	5782	9334.742258796653	8
0	5785	9340.026215675753	7
0	5788	9344.477177279819	6
0	5790	9345.226321637164	5
0	5792	9349.077962941452	4
0	5794	9362.761783836333	5
0	5797	9363.336175923826	6
0	5800	9372.43746806307	5
0	5802	9378.191330497848	4
0	5804	9378.722684995177	5
0	5807	9379.705440794139	6
0	5810	9383.859818501074	7
0	5813	9385.905571279612	8
0	5815	9387.54219694658	7
0	5818	9390.852486237109	8
0	5820	9391.498653240574	9
0	5822	9393.66152599239	8
0	5825	9394.51036966944	7
0	5828	9397.233280424647	8
0	5830	9399.849727426629	7
0	5833	9400.76936883178	8
0	5835	9407.378138704052	9
0	5837	9412.00776758967	10
0	5839	9416.311144961315	9
0	5842	9416.536314575243	8
0	5845	9422.965443344992	7
0	5848	9424.656365064204	8
0	5850	9424.692225757731	9
0	5852	9432.501233812176	10
0	5854	9433.689448613455	9
0	5857	9435.91929909153	10
0	5859	9441.188964058988	9
0	5862	9442.422268133263	10
0	5864	9443.695554367789	11
0	5866	9448.824647910188	10
0	5869	9450.443471600513	9
0	5872	9458.14306224595	8
0	5875	9458.153223306426	9
0	5877	9464.12740481697	10
0	5879	9464.688705066544	9
0	5882	9465.193487556787	8
0	5885	9466.098332774211	9
0	5887	9477.493768687701	10
0	5889	9479.777179137767	9
0	5892	9480.341203012234	10
0	5894	9481.916961941656	9
0	5897	9482.032871664428	10
0	5899	9482.299856966813	11
0	5901	9483.836869418898	10
0	5904	9493.233865504933	11
0	5906	9498.621388716388	12
0	5908	9506.905589847776	11
0	5911	9511.834191360071	10
0	5914	9514.837249858993	9
0	5917	9514.956482792949	8
0	5920	9516.086555792975	7
0	5923	9518.475766379546	8
0	5925	9518.548387659071	7
0	5928	9520.406615113665	8
0	5930	9521.966275862	9
0	5932	9530.125721197485	10
0	5934	9531.278028912953	11
0	5936	9538.057212768557	10
0	5939	9541.649700224758	9
0	5942	9543.736770144242	10
0	5944	9544.06706761151	11
0	5946	9548.436356996794	10
0	5949	9552.20555899941	11
0	5951	9555.148761001596	10
0	5954	9560.810953647181	9
0	5957	9564.252144112948	8
0	5960	9564.288813210976	7
0	5963	9566.905774941356	6
0	5965	9567.599886268348	5
0	5967	9581.32848986879	4
0	5969	9593.166615964885	5
0	5972	9593.523563806252	4
0	5974	9600.731359523923	5
0	5977	9602.278030725999	4
0	5979	9612.936118125874	5
0	5982	9614.739338300296	4
0	5984	9622.037596175051	5
0	5987	9626.086537955959	4
0	5989	9632.03226674418	5
0	5992	9641.938898677289	4
0	5994	9642.799682439263	5
0	5997	9644.783436456927	6
0	6000	9650.440843643365	7
0	6003	9651.856836559401	8
0	6005	9653.474769955202	7
0	6008	9661.92527811476	8
0	6010	9670.221162831152	7
0	6013	9674.414398109456	6
0	6015	9675.178651750894	7
0	6018	9676.178805375957	6
0	6020	9676.984113005877	5
0	6022	9678.237010802303	4
0	6024	9684.464011757638	5
0	6027	9690.459301173532	6
0	6030	9691.6231183286	7
0	6033	9695.196596217852	8
0	6035	9697.068418698808	9
0	6037	9697.861821390058	10
0	6039	9699.789882313369	11
0	6041	9700.875861887477	10
0	6044	9702.211119015709	11
0	6046	9703.775075119157	12
0	6048	9704.224133374915	11
0	6051	9704.73486324825	10
0	6054	9707.328623877549	9
0	6057	9708.031043412532	10
0	6059	9713.823734853778	9
0	6062	9714.566027402149	8
0	6065	9717.368260770517	9
0	6067	9720.03925587809	8
0	6070	9720.9766061325	7
0	6073	9729.618825604341	6
0	6075	9730.133961227428	7
0	6078	9730.241332559125	6
0	6080	9731.066715634233	5
0	6082	9733.70429033468	6
0	6085	9737.016364133907	5
0	6087	9737.476971280543	4
0	6089	9744.788234952076	3
0	6091	9744.987466915502	4
0	6094	9745.12867583553	5
0	6097	9745.462201358478	6
0	6100	9748.583332858815	5
0	6102	9750.813708880537	4
0	6104	9766.054503085683	5
0	6107	9774.478225408095	4
0	6109	9788.595791910625	5
0	6112	9789.108746811356	6
0	6115	9792.688572434683	7
0	6118	9792.788869966558	6
0	6120	9793.167495594127	5
0	6122	9799.623722526545	4
0	6124	9802.690804864105	5
0	6127	9804.987230891152	6
0	6130	9806.589379557352	5
0	6132	9807.142483887939	4
0	6134	9830.41673724534	3
0	6136	9836.88153128231	4
0	6139	9841.733609398903	5
0	6142	9842.107692663282	4
0	6144	9844.424948372329	5
0	6147	9846.214601306951	6
0	6150	9846.91978201341	5
0	6152	9851.711201514506	6
0	6155	9854.480146567121	5
0	6157	9862.70607768931	4
0	6159	9862.975058250162	5
0	6162	9873.228560931279	4
0	6164	9880.2874920987	3
0	6166	9882.5545426916	4
0	6169	9883.271515959795	3
0	6171	9897.159549708661	4
0	6174	9899.763065489037	5
0	6177	9902.322983589017	6
0	6180	9904.255551585136	5
0	6182	9911.381577317372	4
0	6184	9920.91469438265	5
0	6187	9927.285338424328	4
0	6189	9930.772140999596	5
0	6192	9934.203464209557	4
0	6194	9941.932185605067	3
0	6196	9943.812953315111	2
0	6198	9946.384325562299	1
0	6200	9955.475660329449	2
0	6203	9957.533551299477	3
0	6206	9968.961331575592	4
0	6209	9981.387822658946	5
0	6212	9988.698729533968	6
0	6215	9998.804123381924	7
0	6218	10001.37426732622	8
0	6220	10004.052807440916	7
0	6223	10004.125815431335	6
0	6225	10015.250538698591	7
0	6228	10023.975881212944	6
0	6230	10029.336791534895	5
0	6232	10035.027235673888	6
0	6235	10042.779008993754	5
0	6237	10052.955223649468	6
0	6240	10054.983961120443	7
0	6243	10057.733281075248	6
0	6245	10060.609488813833	7
0	6248	10062.610488675172	6
0	6250	10081.056846066949	5
0	6252	10089.028632042376	6
0	6255	10093.28007248286	5
0	6257	10097.457132456544	4
0	6259	10097.518745567819	5
0	6262	10099.602736401532	4
0	6264	10103.972920265313	5
0	6267	10112.613794400337	4
0	6269	10115.54906889259	5
0	6272	10124.528210257294	6
0	6275	10127.57336032474	7
0	6278	10127.624888658835	8
0	6280	10130.499787214163	9
0	6282	10134.564172429893	10
0	6284	10135.957119568755	11
0	6286	10136.582143483672	10
0	6289	10137.473179027465	9
0	6292	10138.381234601136	8
0	6295	10139.323951605426	7
0	6298	10139.447029103149	6
0	6300	10140.400361181693	5
0	6302	10141.611034275579	6
0	6305	10141.837847829293	5
0	6307	10144.941958201374	6
0	6310	10147.756881706558	7
0	6313	10148.932783162639	8
0	6315	10155.350744121819	7
0	6318	10156.32582765815	6
0	6320	10156.885824902262	7
0	6323	10160.684860364355	8
0	6325	10165.722534541537	7
0	6328	10165.96382674966	8
0	6330	10166.580840252292	7
0	6333	10167.730267150645	8
0	6335	10167.828940815403	9
0	6337	10178.775278166839	10
0	6339	10180.282903383843	11
0	6341	10200.106326117648	10
0	6344	10203.055766565369	9
0	6347	10205.893979890409	10
0	6349	10208.188838206822	9
0	6352	10208.356001651663	10
0	6354	10214.948996957803	11
0	6356	10221.783051012356	10
0	6359	10225.675596454103	9
0	6362	10227.628207413014	8
0	6365	10227.734128950194	9
0	6367	10229.334759065477	8
0	6370	10231.211067137518	7
0	6373	10235.679174302577	6
0	6375	10239.055697809741	7
0	6378	10241.345513458149	6
0	6380	10243.329681894426	5
0	6382	10249.783566872665	4
0	6384	10253.944276788172	5
0	6387	10276.477772062575	4
0	6389	10277.953636552839	3
0	6391	10280.029314714451	4
0	6394	10280.091544342221	3
0	6396	10282.078282354121	2
0	6398	10287.894587159615	3
0	6401	10289.746882708681	4
0	6404	10292.472947039202	3
0	6406	10293.003541830951	2
0	6408	10298.228584762812	3
0	6411	10300.798833034366	4
0	6414	10307.923304324272	3
0	6416	10311.069382758819	2
0	6418	10313.491730768017	3
0	6421	10326.37895391356	2
0	6423	10328.591903897394	3
0	6426	10329.468258810181	4
0	6429	10336.947353300677	3
0	6431	10343.803413428665	4
0	6434	10352.070514241273	3
0	6436	10353.535109555294	2
0	6438	10367.443635609874	3
0	6441	10373.857441182009	4
0	6444	10385.587553783992	5
0	6447	10387.55815170142	6
0	6450	10398.668754848752	5
0	6452	10399.046799287529	4
0	6454	10404.901278034543	5
0	6457	10405.581816351887	6
0	6460	10407.328865025384	7
0	6463	10408.458614726226	6
0	6465	10408.67837909934	7
0	6468	10411.45213295886	6
0	6470	10414.087686608642	7
0	6473	10415.496178200198	8
0	6475	10421.125982986703	7
0	6478	10422.186025977986	6
0	6480	10423.436596053205	5
0	6482	10427.225792086189	6
0	6485	10429.516677804378	5
0	6487	10432.229175830008	6
0	6490	10435.595211243219	5
0	6492	10435.615943654037	4
0	6494	10435.955020278527	3
0	6496	10447.550777414016	4
0	6499	10449.02082446499	3
0	6501	10453.037350623941	4
0	6504	10470.89081908203	3
0	6506	10484.724601190291	2
0	6508	10485.578288261275	3
0	6511	10489.777170314441	2
0	6513	10491.877654559386	3
0	6516	10493.012231097596	2
0	6518	10503.960366724912	3
0	6521	10513.574616455793	4
0	6524	10514.335177153476	3
0	6526	10518.79430505768	4
0	6529	10520.413400601027	5
0	6532	10520.861867573383	4
0	6534	10524.26141971557	3
0	6536	10528.944641548709	4
0	6539	10533.759698429795	3
0	6541	10535.623468625842	2
0	6543	10545.713715298806	1
0	6545	10546.866275212984	2
0	6548	10552.443619814912	3
0	6551	10554.081520338833	2
0	6553	10563.304288164289	3
0	6556	10564.636593738895	2
0	6558	10565.981259769801	3
0	6561	10569.522591315898	4
0	6564	10572.333831540485	5
0	6567	10576.620391915864	6
0	6570	10579.522220077044	5
0	6572	10586.311566506842	6
0	6575	10587.307676428129	7
0	6578	10589.320793423411	6
0	6580	10591.102252230429	5
0	6582	10594.995604221557	6
0	6585	10604.492205879946	5
0	6587	10605.707246660859	4
0	6589	10619.163690701813	3
0	6591	10620.088108815565	4
0	6594	10620.582351843288	5
0	6597	10626.370644455684	4
0	6599	10638.204192607374	5
0	6602	10639.160401794085	6
0	6605	10648.463050467999	7
0	6608	10650.55696042693	6
0	6610	10652.83986947467	5
0	6612	10670.752791375493	6
0	6615	10671.525079685558	5
0	6617	10672.244200917673	4
0	6619	10676.027387174738	5
0	6622	10676.57568047281	4
0	6624	10679.10109542047	5
0	6627	10691.393417232956	6
0	6630	10693.26870600576	5
0	6632	10698.851974784107	6
0	6635	10701.537332675993	7
0	6638	10704.282272373097	8
0	6640	10707.842420363665	7
0	6643	10711.091890061192	8
0	6645	10714.578460399111	7
0	6648	10714.682614866744	6
0	6650	10715.623841778211	7
0	6653	10716.853376248867	8
0	6655	10719.109663257328	9
0	6657	10720.853427705756	8
0	6660	10724.123252730235	7
0	6663	10724.719383956963	6
0	6665	10734.292835226618	7
0	6668	10738.32929990719	6
0	6670	10743.743042451325	7
0	6673	10743.908476428368	6
0	6675	10744.212595927648	5
0	6677	10748.405952119458	4
0	6679	10754.253744280003	5
0	6682	10763.103325901333	4
0	6684	10768.544505296507	5
0	6687	10773.239937367641	6
0	6690	10774.226615333737	5
0	6692	10776.849332437571	6
0	6695	10777.238541135767	5
0	6697	10779.810409181662	4
0	6699	10780.696950317818	5
0	6702	10782.18212173986	6
0	6705	10792.662483086528	5
0	6707	10792.724887658481	6
0	6710	10804.050862496131	5
0	6712	10806.732443603919	4
0	6714	10809.342890233404	5
0	6717	10812.641924528287	6
0	6720	10823.235708500538	7
0	6723	10824.251645532993	8
0	6725	10826.053626463274	7
0	6728	10828.345798811014	6
0	6730	10832.479959309469	5
0	6732	10841.925447582456	6
0	6735	10843.266891529445	7
0	6738	10845.480065401712	8
0	6740	10851.895050260181	7
0	6743	10855.630790382383	6
0	6745	10856.829651903863	7
0	6748	10856.887951759609	8
0	6750	10859.122839137459	7
0	6753	10859.125477858969	6
0	6755	10865.084048588134	7
0	6758	10866.633079796903	8
0	6760	10870.924732822288	7
0	6763	10871.245083092288	6
0	6765	10872.288893942555	5
0	6767	10872.785282779648	4
0	6769	10877.009372394522	3
0	6771	10888.76262073353	4
0	6774	10895.618579550525	3
0	6776	10905.273087502345	2
0	6778	10925.040989469412	1
0	6780	10929.703449106404	2
0	6783	10937.5351988839	3
0	6786	10937.663542262078	4
0	6789	10944.988802541595	3
0	6791	10947.599878801417	2
0	6793	10953.409479302991	3
0	6796	10955.876760548362	4
0	6799	10957.84296882543	5
0	6802	10962.307266591958	4
0	6804	10966.363572390724	5
0	6807	10971.565632290542	4
0	6809	10973.859960128654	5
0	6812	10976.350444067412	6
0	6815	10979.26597682665	5
0	6817	10985.062300745655	4
0	6819	10986.998970558717	5
0	6822	10989.986411025928	6
0	6825	10996.94680435983	7
0	6828	11001.503740041195	8
0	6830	11005.107406353652	9
0	6832	11020.078437197039	8
0	6835	11025.933304543135	7
0	6838	11029.779284515628	6
0	6840	11033.593063320276	5
0	6842	11034.199651172418	6
0	6845	11047.71355429706	7
0	6848	11048.49629596605	6
0	6850	11049.295571424564	7
0	6853	11052.233967154177	6
0	6855	11058.188480341432	7
0	6858	11062.387308931733	6
0	6860	11066.780888391611	7
0	6863	11066.985412062304	8
0	6865	11073.945989322207	7
0	6868	11075.149892296057	6
0	6870	11075.634097757167	7
0	6873	11081.621769977483	8
0	6875	11082.872844517839	7
0	6878	11084.745224921327	6
0	6880	11088.566426511947	7
0	6883	11089.81110510696	8
0	6885	11091.970372715982	7
0	6888	11092.417709457492	6
0	6890	11098.121021889677	5
0	6892	11098.955409368604	4
0	6894	11099.999401587345	3
0	6896	11100.956816793885	4
0	6899	11101.181711925048	5
0	6902	11103.210786972804	6
0	6905	11109.044597662942	7
0	6908	11112.577424997252	6
0	6910	11118.725106912413	7
0	6913	11128.673808876079	6
0	6915	11143.762415155705	5
0	6917	11149.525634226194	4
0	6919	11160.410053433479	3
0	6921	11164.535501934808	2
0	6923	11169.966016766209	3
0	6926	11171.340712677483	2
0	6928	11174.127720133791	3
0	6931	11174.673067848157	4
0	6934	11177.485519430775	3
0	6936	11188.701643712869	4
0	6939	11189.292190814498	5
0	6942	11191.869900719456	4
0	6944	11192.453613713128	3
0	6946	11206.273666494678	4
0	6949	11209.559527898931	5
0	6952	11224.821726991748	4
0	6954	11230.208820586054	3
0	6956	11240.322556348833	4
0	6959	11240.854709625047	3
0	6961	11241.121644869763	4
0	6964	11248.320195676767	5
0	6967	11249.106976991051	4
0	6969	11250.013396128878	5
0	6972	11254.719832923637	4
0	6974	11259.509181566542	3
0	6976	11265.655437795969	4
0	6979	11268.563390414997	3
0	6981	11275.195476377959	4
0	6984	11276.194392984135	5
0	6987	11284.166775075562	6
0	6990	11284.817069104806	5
0	6992	11287.760587168338	4
0	6994	11291.88945418637	3
0	6996	11296.419838762533	4
0	6999	11309.484454734878	5
0	7002	11311.498552504546	4
0	7004	11321.802379596672	3
0	7006	11326.719543465512	4
0	7009	11338.488264674964	3
0	7011	11338.650020946732	2
0	7013	11342.217266152686	3
0	7016	11346.710229768883	2
0	7018	11347.342450534465	1
0	7020	11349.412489941153	2
0	7023	11364.198726719226	3
0	7026	11370.088567273021	2
0	7028	11370.490025060192	1
0	7030	11371.534279673566	2
0	7033	11371.716690160949	3
0	7036	11374.875606012706	4
0	7039	11380.19049320051	3
0	7041	11380.38976396352	4
0	7044	11382.780232471515	3
0	7046	11388.333248100508	4
0	7049	11391.398028053631	5
0	7052	11392.912639996826	4
0	7054	11393.122669056251	5
0	7057	11401.86813212585	4
0	7059	11405.255723678466	3
0	7061	11405.373766605176	4
0	7064	11407.630288374394	5
0	7067	11408.123448634425	6
0	7070	11411.745267045853	7
0	7073	11415.856909700587	8
0	7075	11415.898644102244	9
0	7077	11419.819252844035	8
0	7080	11421.88006066425	9
0	7082	11423.362774253817	10
0	7084	11424.541417327912	11
0	7086	11425.249551404194	10
0	7089	11429.426871367164	9
0	7092	11433.768597012496	10
0	7094	11436.637471657981	11
0	7096	11441.448114004251	10
0	7099	11442.619933783313	11
0	7101	11443.939149713376	10
0	7104	11445.574693421414	9
0	7107	11445.659069038774	8
0	7110	11447.983683676434	9
0	7112	11452.318489571034	8
0	7115	11455.065623389933	7
0	7118	11458.565377509389	8
0	7120	11460.114763408305	9
0	7122	11460.256836948119	10
0	7124	11461.145575316667	9
0	7127	11465.85625316288	8
0	7130	11467.034968972859	9
0	7132	11467.391052421018	8
0	7135	11469.038743194646	9
0	7137	11479.361091742984	8
0	7140	11484.24221704966	7
0	7143	11484.79931646826	8
0	7145	11485.260990338793	9
0	7147	11486.151376154253	8
0	7150	11486.262378091298	7
0	7153	11488.178606731571	6
0	7155	11496.874978385177	7
0	7158	11501.499997539366	8
0	7160	11502.140865329649	7
0	7163	11508.175002624752	8
0	7165	11518.686628197704	9
0	7167	11525.159200750818	8
0	7170	11527.619051029777	9
0	7172	11529.939789978672	10
0	7174	11534.615216129463	9
0	7177	11537.258735003127	8
0	7180	11541.708256234428	9
0	7182	11542.241513900036	8
0	7185	11545.173740443836	9
0	7187	11545.32907691431	8
0	7190	11550.694158445094	7
0	7193	11557.423825967844	6
0	7195	11559.341353552079	7
0	7198	11570.369359408206	6
0	7200	11571.515353786751	5
0	7202	11585.0853744102	6
0	7205	11586.633116583814	5
0	7207	11589.405060278322	4
0	7209	11590.334423686096	5
0	7212	11600.417494981829	4
0	7214	11602.248383619092	5
0	7217	11605.82762975076	6
0	7220	11605.942111338273	7
0	7223	11610.655598932786	6
0	7225	11612.184811587853	5
0	7227	11614.734227670279	4
0	7229	11617.675460340318	3
0	7231	11623.231244203756	2
0	7233	11624.494504379427	3
0	7236	11638.616572538667	2
0	7238	11638.757575184591	1
0	7240	11644.052282732477	2
0	7243	11648.651737510409	1
0	7245	11660.273951731859	2
0	7248	11660.633780731367	3
0	7251	11665.835949939756	4
0	7254	11669.814113908769	5
0	7257	11673.775586275387	4
0	7259	11673.796376049607	5
0	7262	11678.194159649192	4
0	7264	11687.89557772112	5
0	7267	11698.116365064565	4
0	7269	11707.847206549845	3
0	7271	11713.198843377933	4
0	7274	11717.473804360277	3
0	7276	11725.692874050977	2
0	7278	11730.438116471978	3
0	7281	11739.718526491301	2
0	7283	11744.922950380158	3
0	7286	11748.672325933993	4
0	7289	11748.962610890314	5
0	7292	11749.911137943136	6
0	7295	11752.610827675862	5
0	7297	11756.344329967038	4
0	7299	11758.974880511322	3
0	7301	11773.292043222875	4
0	7304	11777.366290600141	3
0	7306	11780.774608611425	2
0	7308	11781.113303300928	3
0	7311	11791.377617112	2
0	7313	11792.405358510439	3
0	7316	11792.428692658732	2
0	7318	11793.048469482107	3
0	7321	11793.173216218371	4
0	7324	11802.807909340707	5
0	7327	11808.920412035408	4
0	7329	11810.960490515109	3
0	7331	11820.976524567142	2
0	7333	11822.934884157621	3
0	7336	11825.621280445209	4
0	7339	11830.512210190312	3
0	7341	11831.794365897493	4
0	7344	11845.467025739923	3
0	7346	11846.482090069147	4
0	7349	11848.740316758894	3
0	7351	11848.770283196555	2
0	7353	11868.709834364776	1
0	7355	11877.372422797712	2
0	7358	11884.073338960944	3
0	7361	11886.588073251921	2
0	7363	11890.313327302693	3
0	7366	11893.289076916334	4
0	7369	11899.512913536425	3
0	7371	11902.19742529443	4
0	7374	11903.887812984489	3
0	7376	11915.901534956874	4
0	7379	11916.524153018296	3
0	7381	11918.301590941358	2
0	7383	11932.001987185695	1
0	7385	11963.830889013561	0
0	7387	11980.772489191261	1
0	7390	11984.923764804292	2
0	7393	11987.853762996236	3
0	7396	11995.915771251373	4
0	7399	12006.895333183175	3
0	7401	12014.340078336672	4
0	7404	12019.900401273071	5
0	7407	12031.96488416373	6
0	7410	12034.306368657762	5
0	7412	12034.557578289609	6
0	7415	12034.794484322124	5
0	7417	12038.157423207589	4
0	7419	12039.863255555951	5
0	7422	12054.207534268205	4
0	7424	12064.90051323461	5
0	7427	12070.659219284486	4
0	7429	12070.866869104542	3
0	7431	12077.750338452286	2
0	7433	12086.814532772822	1
0	7435	12092.005215456356	0
0	7437	12095.771852746523	1
0	7440	12119.963906736598	2
0	7443	12122.919293459685	3
0	7446	12123.002330639022	4
0	7449	12125.675494671334	3
0	7451	12125.786577427371	2
0	7453	12127.328938260237	3
0	7456	12130.190863590734	4
0	7459	12136.951233365284	5
0	7462	12142.215356710693	4
0	7464	12145.467885964094	5
0	7467	12154.615412406161	6
0	7470	12158.49416445272	5
0	7472	12159.550240252894	6
0	7475	12160.050236866749	7
0	7478	12160.556192389203	6
0	7480	12162.167430317674	5
0	7482	12165.158339445924	6
0	7485	12174.647590487786	5
0	7487	12175.807726819508	4
0	7489	12176.816740200447	3
0	7491	12188.966702846018	4
0	7494	12193.095682678422	3
0	7496	12194.09170797167	4
0	7499	12205.437844800664	3
0	7501	12208.950555198663	4
0	7504	12210.795027818915	3
0	7506	12211.907331775076	4
0	7509	12212.531923581016	5
0	7512	12214.859928463251	6
0	7515	12214.884603891232	7
0	7518	12219.305028361597	6
0	7520	12221.107372829404	7
0	7523	12226.992412025573	8
0	7525	12228.954749212275	7
0	7528	12229.41117433163	8
0	7530	12229.689593610891	7
0	7533	12230.451984652703	6
0	7535	12231.109249559819	7
0	7538	12231.908938376444	6
0	7540	12232.996405626086	7
0	7543	12233.982388741873	6
0	7545	12236.151234924324	5
0	7547	12238.841657347843	4
0	7549	12247.640966916023	3
0	7551	12255.430582547873	4
0	7554	12256.851084567187	5
0	7557	12257.270506613395	6
0	7560	12259.023917926003	5
0	7562	12262.271758276047	4
0	7564	12270.913250951549	3
0	7566	12271.975354750332	2
0	7568	12272.7395912447	3
0	7571	12275.242459643016	4
0	7574	12279.045212615788	5
0	7577	12282.130400379164	6
0	7580	12285.080398274925	7
0	7583	12285.305881649828	6
0	7585	12287.415182293405	5
0	7587	12287.554393411979	4
0	7589	12289.073470405029	3
0	7591	12289.25952732429	2
0	7593	12289.568242835979	3
0	7596	12290.146881309367	2
0	7598	12290.393240573613	1
0	7600	12308.698287568939	2
0	7603	12314.06312211646	3
0	7606	12335.857403252012	2
0	7608	12340.011420842317	3
0	7611	12351.260117111978	4
0	7614	12354.35230094776	5
0	7617	12355.349769713172	6
0	7620	12361.997803602252	5
0	7622	12362.475969304314	6
0	7625	12366.96661836091	5
0	7627	12385.347110950382	4
0	7629	12395.438001192468	5
0	7632	12395.94514653241	6
0	7635	12396.365780883846	7
0	7638	12398.940911952125	6
0	7640	12408.514420569085	7
0	7643	12414.136776661784	8
0	7645	12426.387117455465	7
0	7648	12435.644230360185	8
0	7650	12437.206935040943	7
0	7653	12438.44832841862	8
0	7655	12439.01661870478	9
0	7657	12440.961260041945	10
0	7659	12448.64490102108	11
0	7661	12450.071906585025	12
0	7663	12451.335950642603	13
0	7665	12452.081928741553	14
0	7667	12456.896105786396	15
0	7669	12457.183893310396	16
0	7671	12458.676951073902	15
0	7674	12464.58959000834	14
0	7677	12465.210540803534	13
0	7680	12466.736882227156	12
0	7683	12467.539519196129	11
0	7686	12468.039564723366	10
0	7689	12468.233860680414	9
0	7692	12471.788875235423	8
0	7695	12474.432222285119	9
0	7697	12480.436757233362	8
0	7700	12481.817304710735	9
0	7702	12482.626664565309	10
0	7704	12484.920960540287	11
0	7706	12487.763444781228	10
0	7709	12488.189357428218	11
0	7711	12502.410446816487	12
0	7713	12503.919712726961	13
0	7715	12505.292900062554	12
0	7718	12508.742676469957	13
0	7720	12511.251209849131	14
0	7722	12511.517711077114	15
0	7724	12514.936891742756	14
0	7727	12516.893046855411	15
0	7729	12531.444113562158	16
0	7731	12532.259639790335	17
0	7733	12537.645353509425	16
0	7736	12539.195890148956	15
0	7739	12545.265510261629	14
0	7742	12550.036614297692	15
0	7744	12551.181509501889	16
0	7746	12557.658257493172	15
0	7749	12563.814446601307	14
0	7752	12577.965454946401	15
0	7754	12585.677225961162	14
0	7757	12594.719739476394	13
0	7760	12598.706808663695	12
0	7763	12598.897774644998	11
0	7766	12601.171477471982	12
0	7768	12601.449398587061	13
0	7770	12606.092794265173	12
0	7773	12610.826869703541	11
0	7776	12612.203506334529	12
0	7778	12612.344355888185	13
0	7780	12624.351095467016	12
0	7783	12625.902895883744	11
0	7786	12628.047710045148	10
0	7789	12631.880009470277	11
0	7791	12634.840967143682	10
0	7794	12634.875552216945	9
0	7797	12642.63012796404	10
0	7799	12646.692981185803	9
0	7802	12654.328891070976	8
0	7805	12655.622691172441	7
0	7808	12675.877074424018	6
0	7810	12683.784801825206	5
0	7812	12687.974052038731	6
0	7815	12691.069396567488	7
0	7818	12691.103032488338	8
0	7820	12692.632762824999	9
0	7822	12695.722883853138	8
0	7825	12696.032773301788	9
0	7827	12701.6807160514	8
0	7830	12712.504656007195	9
0	7832	12713.407582480937	8
0	7835	12714.722380010186	9
0	7837	12728.85661667477	8
0	7840	12729.166982500055	7
0	7843	12729.367452884349	8
0	7845	12738.983997971748	9
0	7847	12739.711016076438	8
0	7850	12747.080019318508	7
0	7853	12747.997276862614	6
0	7855	12752.525522558963	5
0	7857	12762.040634053425	4
0	7859	12769.776130586397	5
0	7862	12773.150989343612	4
0	7864	12776.248238686203	5
0	7867	12778.377820516975	4
0	7869	12787.17193664162	5
0	7872	12790.748391165236	6
0	7875	12793.061003296371	7
0	7878	12794.677592498744	6
0	7880	12801.11315051477	7
0	7883	12802.265391632983	8
0	7885	12805.483746779984	9
0	7887	12808.306550711942	10
0	7889	12811.479137977721	9
0	7892	12812.133754281764	10
0	7894	12814.192982506468	9
0	7897	12815.354882953288	10
0	7899	12815.444244242453	9
0	7902	12815.695624458061	8
0	7905	12816.425891840368	7
0	7908	12817.011174359169	6
0	7910	12823.271132688659	5
0	7912	12824.593984204298	6
0	7915	12829.500854827778	7
0	7918	12830.470168661129	6
0	7920	12833.605871264156	7
0	7923	12842.867434952857	6
0	7925	12845.818111093319	5
0	7927	12846.205232436422	4
0	7929	12847.234627185381	3
0	7931	12852.408440211088	2
0	7933	12852.99661804911	3
0	7936	12858.771389765074	2
0	7938	12861.700141990645	3
0	7941	12863.344760292736	4
0	7944	12865.44316580126	5
0	7947	12866.928619519792	4
0	7949	12870.149654971617	5
0	7952	12874.367041635029	6
0	7955	12885.919935010689	7
0	7958	12893.147601096211	6
0	7960	12896.763699365334	7
0	7963	12902.004670576279	6
0	7965	12904.760228349171	5
0	7967	12908.398210929512	6
0	7970	12920.823380408898	7
0	7973	12920.890611777423	6
0	7975	12922.451645814762	7
0	7978	12928.212489334526	8
[...]
1	7205	11586.633116583814	0
1	7207	11589.405060278322	0
1	7209	11590.334423686096	0
1	7212	11600.417494981829	0
1	7214	11602.248383619092	0
1	7217	11605.82762975076	0
1	7220	11605.942111338273	0
1	7223	11610.655598932786	0
1	7225	11612.184811587853	0
1	7227	11614.734227670279	0
1	7229	11617.675460340318	0
1	7231	11623.231244203756	0
1	7233	11624.494504379427	0
1	7236	11638.616572538667	0
1	7238	11638.757575184591	0
1	7240	11644.052282732477	0
1	7243	11648.651737510409	0
1	7245	11660.273951731859	0
1	7248	11660.633780731367	0
1	7251	11665.835949939756	0
1	7254	11669.814113908769	0
1	7257	11673.775586275387	0
1	7259	11673.796376049607	0
1	7262	11678.194159649192	0
1	7264	11687.89557772112	0
1	7267	11698.116365064565	0
1	7269	11707.847206549845	0
1	7271	11713.198843377933	0
1	7274	11717.473804360277	0
1	7276	11725.692874050977	0
1	7278	11730.438116471978	0
1	7281	11739.718526491301	0
1	7283	11744.922950380158	0
1	7286	11748.672325933993	0
1	7289	11748.962610890314	0
1	7292	11749.911137943136	0
1	7295	11752.610827675862	0
1	7297	11756.344329967038	0
1	7299	11758.974880511322	0
1	7301	11773.292043222875	0
1	7304	11777.366290600141	0
1	7306	11780.774608611425	0
1	7308	11781.113303300928	0
1	7311	11791.377617112	0
1	7313	11792.405358510439	0
1	7316	11792.428692658732	0
1	7318	11793.048469482107	0
1	7321	11793.173216218371	0
1	7324	11802.807909340707	0
1	7327	11808.920412035408	0
1	7329	11810.960490515109	0
1	7331	11820.976524567142	0
1	7333	11822.934884157621	0
1	7336	11825.621280445209	0
1	7339	11830.512210190312	0
1	7341	11831.794365897493	0
1	7344	11845.467025739923	0
1	7346	11846.482090069147	0
1	7349	11848.740316758894	0
1	7351	11848.770283196555	0
1	7353	11868.709834364776	0
1	7355	11877.372422797712	0
1	7358	11884.073338960944	0
1	7361	11886.588073251921	0
1	7363	11890.313327302693	0
1	7366	11893.289076916334	0
1	7369	11899.512913536425	0
1	7371	11902.19742529443	0
1	7374	11903.887812984489	0
1	7376	11915.901534956874	0
1	7379	11916.524153018296	0
1	7381	11918.301590941358	0
1	7383	11932.001987185695	0
1	7385	11963.830889013561	0
1	7387	11980.772489191261	0
1	7390	11984.923764804292	0
1	7393	11987.853762996236	0
1	7396	11995.915771251373	0
1	7399	12006.895333183175	0
1	7401	12014.340078336672	0
1	7404	12019.900401273071	0
1	7407	12031.96488416373	0
1	7410	12034.306368657762	0
1	7412	12034.557578289609	0
1	7415	12034.794484322124	0
1	7417	12038.157423207589	0
1	7419	12039.863255555951	0
1	7422	12054.207534268205	0
1	7424	12064.90051323461	0
1	7427	12070.659219284486	0
1	7429	12070.866869104542	0
1	7431	12077.750338452286	0
1	7433	12086.814532772822	0
1	7435	12092.005215456356	0
1	7437	12095.771852746523	0
1	7440	12119.963906736598	0
1	7443	12122.919293459685	0
1	7446	12123.002330639022	0
1	7449	12125.675494671334	0
1	7451	12125.786577427371	0
1	7453	12127.328938260237	0
1	7456	12130.190863590734	0
1	7459	12136.951233365284	0
1	7462	12142.215356710693	0
1	7464	12145.467885964094	0
1	7467	12154.615412406161	0
1	7470	12158.49416445272	0
1	7472	12159.550240252894	0
1	7475	12160.050236866749	0
1	7478	12160.556192389203	0
1	7480	12162.167430317674	0
1	7482	12165.158339445924	0
1	7485	12174.647590487786	0
1	7487	12175.807726819508	0
1	7489	12176.816740200447	0
1	7491	12188.966702846018	0
1	7494	12193.095682678422	0
1	7496	12194.09170797167	0
1	7499	12205.437844800664	0
1	7501	12208.950555198663	0
1	7504	12210.795027818915	0
1	7506	12211.907331775076	0
1	7509	12212.531923581016	0
1	7512	12214.859928463251	0
1	7515	12214.884603891232	0
1	7518	12219.305028361597	0
1	7520	12221.107372829404	0
1	7523	12226.992412025573	1
1	7525	12228.954749212275	0
1	7528	12229.41117433163	1
1	7530	12229.689593610891	0
1	7533	12230.451984652703	0
1	7535	12231.109249559819	0
1	7538	12231.908938376444	0
1	7540	12232.996405626086	0
1	7543	12233.982388741873	0
1	7545	12236.151234924324	0
1	7547	12238.841657347843	0
1	7549	12247.640966916023	0
1	7551	12255.430582547873	0
1	7554	12256.851084567187	0
1	7557	12257.270506613395	0
1	7560	12259.023917926003	0
1	7562	12262.271758276047	0
1	7564	12270.913250951549	0
1	7566	12271.975354750332	0
1	7568	12272.7395912447	0
1	7571	12275.242459643016	0
1	7574	12279.045212615788	0
1	7577	12282.130400379164	0
1	7580	12285.080398274925	0
1	7583	12285.305881649828	0
1	7585	12287.415182293405	0
1	7587	12287.554393411979	0
1	7589	12289.073470405029	0
1	7591	12289.25952732429	0
1	7593	12289.568242835979	0
1	7596	12290.146881309367	0
1	7598	12290.393240573613	0
1	7600	12308.698287568939	0
1	7603	12314.06312211646	0
1	7606	12335.857403252012	0
1	7608	12340.011420842317	0
1	7611	12351.260117111978	0
1	7614	12354.35230094776	0
1	7617	12355.349769713172	0
1	7620	12361.997803602252	0
1	7622	12362.475969304314	0
1	7625	12366.96661836091	0
1	7627	12385.347110950382	0
1	7629	12395.438001192468	0
1	7632	12395.94514653241	0
1	7635	12396.365780883846	0
1	7638	12398.940911952125	0
1	7640	12408.514420569085	0
1	7643	12414.136776661784	1
1	7645	12426.387117455465	0
1	7648	12435.644230360185	1
1	7650	12437.206935040943	0
1	7653	12438.44832841862	1
1	7655	12439.01661870478	2
1	7657	12440.961260041945	3
1	7659	12448.64490102108	4
1	7661	12450.071906585025	5
1	7663	12451.335950642603	6
1	7665	12452.081928741553	7
1	7667	12456.896105786396	8
1	7669	12457.183893310396	9
1	7671	12458.676951073902	8
1	7674	12464.58959000834	7
1	7677	12465.210540803534	6
1	7680	12466.736882227156	5
1	7683	12467.539519196129	4
1	7686	12468.039564723366	3
1	7689	12468.233860680414	2
1	7692	12471.788875235423	1
1	7695	12474.432222285119	2
1	7697	12480.436757233362	1
1	7700	12481.817304710735	2
1	7702	12482.626664565309	3
1	7704	12484.920960540287	4
1	7706	12487.763444781228	3
1	7709	12488.189357428218	4
1	7711	12502.410446816487	5
1	7713	12503.919712726961	6
1	7715	12505.292900062554	5
1	7718	12508.742676469957	6
1	7720	12511.251209849131	7
1	7722	12511.517711077114	8
1	7724	12514.936891742756	7
1	7727	12516.893046855411	8
1	7729	12531.444113562158	9
1	7731	12532.259639790335	10
1	7733	12537.645353509425	9
1	7736	12539.195890148956	8
1	7739	12545.265510261629	7
1	7742	12550.036614297692	8
1	7744	12551.181509501889	9
1	7746	12557.658257493172	8
1	7749	12563.814446601307	7
1	7752	12577.965454946401	8
1	7754	12585.677225961162	7
1	7757	12594.719739476394	6
1	7760	12598.706808663695	5
1	7763	12598.897774644998	4
1	7766	12601.171477471982	5
1	7768	12601.449398587061	6
1	7770	12606.092794265173	5
1	7773	12610.826869703541	4
1	7776	12612.203506334529	5
1	7778	12612.344355888185	6
1	7780	12624.351095467016	5
1	7783	12625.902895883744	4
1	7786	12628.047710045148	3
1	7789	12631.880009470277	4
1	7791	12634.840967143682	3
1	7794	12634.875552216945	2
1	7797	12642.63012796404	3
1	7799	12646.692981185803	2
1	7802	12654.328891070976	1
1	7805	12655.622691172441	0
1	7808	12675.877074424018	0
1	7810	12683.784801825206	0
1	7812	12687.974052038731	0
1	7815	12691.069396567488	0
1	7818	12691.103032488338	1
1	7820	12692.632762824999	2
1	7822	12695.722883853138	1
1	7825	12696.032773301788	2
1	7827	12701.6807160514	1
1	7830	12712.504656007195	2
1	7832	12713.407582480937	1
1	7835	12714.722380010186	2
1	7837	12728.85661667477	1
1	7840	12729.166982500055	0
1	7843	12729.367452884349	1
1	7845	12738.983997971748	2
1	7847	12739.711016076438	1
1	7850	12747.080019318508	0
1	7853	12747.997276862614	0
1	7855	12752.525522558963	0
1	7857	12762.040634053425	0
1	7859	12769.776130586397	0
1	7862	12773.150989343612	0
1	7864	12776.248238686203	0
1	7867	12778.377820516975	0
1	7869	12787.17193664162	0
1	7872	12790.748391165236	0
1	7875	12793.061003296371	0
1	7878	12794.677592498744	0
1	7880	12801.11315051477	0
1	7883	12802.265391632983	1
1	7885	12805.483746779984	2
1	7887	12808.306550711942	3
1	7889	12811.479137977721	2
1	7892	12812.133754281764	3
1	7894	12814.192982506468	2
1	7897	12815.354882953288	3
1	7899	12815.444244242453	2
1	7902	12815.695624458061	1
1	7905	12816.425891840368	0
1	7908	12817.011174359169	0
1	7910	12823.271132688659	0
1	7912	12824.593984204298	0
1	7915	12829.500854827778	0
1	7918	12830.470168661129	0
1	7920	12833.605871264156	0
1	7923	12842.867434952857	0
1	7925	12845.818111093319	0
1	7927	12846.205232436422	0
1	7929	12847.234627185381	0
1	7931	12852.408440211088	0
1	7933	12852.99661804911	0
1	7936	12858.771389765074	0
1	7938	12861.700141990645	0
1	7941	12863.344760292736	0
1	7944	12865.44316580126	0
1	7947	12866.928619519792	0
1	7949	12870.149654971617	0
1	7952	12874.367041635029	0
1	7955	12885.919935010689	0
1	7958	12893.147601096211	0
1	7960	12896.763699365334	0
1	7963	12902.004670576279	0
1	7965	12904.760228349171	0
1	7967	12908.398210929512	0
1	7970	12920.823380408898	0
1	7973	12920.890611777423	0
1	7975	12922.451645814762	0
1	7978	12928.212489334526	1
1	7980	12928.977826904766	2
1	7982	12929.241267838877	1
1	7985	12929.610977188622	0
1	7988	12937.241071345258	0
1	7990	12940.733533363125	0
1	7992	12954.844479030919	0
1	7995	12961.985032270782	0
1	7998	12963.137153376369	1
1	8000	12964.516159301883	2
1	8002	12964.756103963035	3
1	8004	12964.980331920702	2
1	8007	12970.280411769189	1
1	8010	12973.186552980222	0
1	8013	12974.3764563772	0
1	8015	12976.714175933433	0
1	8017	12979.535059878806	0
1	8019	12993.669896009957	0
1	8021	12999.583187717286	0
1	8024	12999.923097976447	0
1	8027	13004.865714383075	0
1	8029	13005.524344194067	0
1	8031	13009.145986287713	0
1	8033	13012.321379519706	0
1	8036	13012.642973171884	0
1	8038	13014.41012243137	0
1	8041	13018.733045577014	0
1	8043	13018.969773694597	0
1	8046	13021.425856847906	0
1	8049	13023.572250459471	0
1	8051	13024.942640147457	0
1	8053	13025.801604876656	0
1	8056	13025.959175407418	0
1	8058	13026.045591951192	0
1	8061	13029.466752870275	0
1	8064	13032.934660202439	0
1	8066	13044.894917517376	0
1	8069	13045.434062771607	0
1	8071	13046.769763037076	0
1	8073	13048.902750309642	0
1	8076	13059.245259787991	0
1	8079	13065.038935789774	0
1	8082	13068.645413064256	0
1	8084	13069.7381546988	0
1	8087	13071.847168881934	0
1	8090	13077.084426540341	0
1	8092	13077.111214600185	0
1	8095	13082.727401051133	0
1	8097	13086.376696837335	0
1	8099	13091.54353526274	0
1	8102	13097.281328121281	0
1	8104	13097.586865346143	0
1	8106	13100.030166723252	0
1	8108	13104.347488964393	0
1	8110	13108.195470656588	0
1	8113	13108.32741398539	0
1	8116	13110.341117318547	0
1	8118	13110.54353636241	0
1	8120	13113.57224536788	0
1	8123	13116.275486068527	0
1	8126	13120.224453327816	0
1	8128	13122.071743491525	0
1	8131	13128.933186954515	0
1	8134	13134.859124082209	0
1	8136	13137.682184343287	0
1	8139	13143.243310806759	0
1	8141	13144.072182222434	0
1	8143	13147.748590738813	0
1	8145	13151.479161446821	0
1	8148	13161.250964875423	0
1	8151	13164.67407641949	0
1	8154	13170.167727669279	0
1	8157	13172.09503468444	0
1	8159	13181.278804716685	0
1	8162	13181.919754259805	0
1	8164	13185.122616708988	0
1	8167	13189.162083813196	0
1	8169	13196.298531189577	0
1	8172	13200.259389578112	0
1	8174	13201.426873573966	0
1	8177	13201.935105749908	0
1	8179	13206.056375808951	0
1	8182	13210.101696886989	0
1	8184	13212.45496344842	0
1	8186	13219.30772500708	0
1	8189	13220.205719677297	0
1	8192	13224.248906047507	0
1	8194	13231.454669269986	0
1	8196	13231.699455368015	0
1	8198	13233.200661323404	0
1	8201	13241.745038422528	0
1	8204	13242.953798682791	0
1	8206	13262.294499504602	0
1	8209	13265.371302271428	0
1	8212	13273.068011777686	0
1	8215	13275.174495741279	0
1	8217	13277.549609535783	0
1	8220	13279.159483056049	0
1	8223	13283.84277516684	0
1	8225	13284.652577894319	0
1	8227	13284.691926627158	0
1	8230	13288.981284152593	0
1	8233	13298.314648545196	1
1	8235	13302.496595562331	0
1	8238	13311.372215623801	0
1	8240	13316.990046485347	0
1	8243	13319.869851304174	0
1	8245	13322.879737219853	0
1	8247	13333.026305425276	0
1	8250	13336.293820731516	0
1	8252	13341.004775718013	0
1	8255	13341.791229728004	0
1	8258	13342.088464755096	1
1	8260	13344.092407715467	0
1	8263	13347.081080419387	0
1	8265	13350.659094065877	0
1	8268	13356.74388284939	0
1	8270	13358.27735858134	0
1	8273	13362.579218099916	0
1	8275	13367.516307047373	0
1	8278	13368.01457359761	0
1	8280	13368.335078051091	0
1	8282	13368.441558132874	0
1	8285	13368.955494416624	0
1	8287	13371.459000611027	0
1	8289	13380.282578660081	0
1	8291	13393.986987813313	0
1	8293	13397.409001808047	0
1	8296	13403.312862528739	0
1	8299	13414.747164358307	0
1	8302	13420.522902404037	0
1	8305	13430.933255595935	0
1	8308	13434.163488733872	0
1	8310	13445.569049229783	0
1	8312	13448.615350454473	0
1	8315	13458.955333949704	0
1	8318	13460.325415842858	0
1	8320	13468.53733925765	0
1	8323	13474.836222410006	0
1	8325	13481.989167450746	0
1	8328	13503.100033624967	1
1	8330	13503.862265478619	2
1	8332	13505.827267799765	1
1	8335	13507.625785927982	2
1	8337	13515.168275374026	3
1	8339	13523.375442134607	2
1	8342	13524.38082208176	1
1	8345	13524.875802641694	0
1	8348	13533.685672316871	1
1	8350	13535.455036803251	0
1	8353	13536.729229398221	0
1	8355	13537.616996421079	0
1	8358	13542.767782430774	0
1	8360	13545.212844054903	0
1	8362	13546.0383459952	0
1	8365	13551.201030918747	0
1	8368	13553.357511908027	1
1	8370	13556.303164727841	2
1	8372	13557.645461409705	1
1	8375	13566.692954849992	0
1	8378	13569.057888005368	1
1	8380	13569.157323778546	2
1	8382	13574.366239542834	1
1	8385	13579.768278198129	2
1	8387	13580.09740858066	3
1	8389	13580.434422674726	4
1	8391	13581.757525975484	3
1	8394	13583.558398967534	2
1	8397	13585.457627935229	1
1	8400	13589.522001729995	0
1	8403	13591.930287576249	1
1	8405	13598.333236754539	2
1	8407	13602.345920720709	3
1	8409	13604.29457416722	4
1	8411	13605.964922545944	3
1	8414	13606.577205698442	4
1	8416	13606.790700107412	3
1	8419	13608.450957059659	2
1	8422	13612.624027634946	1
1	8425	13612.821152708916	2
1	8427	13622.005168310792	1
1	8430	13622.931122790852	0
1	8433	13624.597937862809	1
1	8435	13625.027192597418	0
1	8438	13625.053934855514	1
1	8440	13629.682987467045	2
1	8442	13631.570318511749	1
1	8445	13631.685061223673	2
1	8447	13636.395658384288	3
1	8449	13638.235608494924	2
1	8452	13638.939900407292	3
1	8454	13640.130171764091	2
1	8457	13642.255949292825	3
1	8459	13643.565126917247	2
1	8462	13644.269520686264	1
1	8465	13645.779409955955	0
1	8468	13647.518674533241	0
1	8470	13648.28443478367	0
1	8473	13648.9305414725	0
1	8475	13650.415238339769	0
1	8478	13657.817363962495	0
1	8480	13660.224393866286	0
1	8483	13660.228642490559	0
1	8485	13663.856110966616	0
1	8488	13665.304493429589	1
1	8490	13670.301698302268	0
1	8493	13673.964174331936	0
1	8495	13675.874003150694	0
1	8497	13676.629358469407	0
1	8500	13679.565742685492	0
1	8502	13690.602566883036	0
1	8505	13691.030182886546	0
1	8508	13698.960417948156	0
1	8510	13707.069164254136	0
1	8513	13712.823123976092	1
1	8515	13712.83749162631	2
1	8517	13714.660378826554	3
1	8519	13721.537180915662	4
1	8521	13723.008764333046	5
1	8523	13725.909729865674	4
1	8526	13728.027118303553	3
1	8529	13731.030081557035	4
1	8531	13733.424956930624	3
1	8534	13733.815335992176	2
1	8537	13736.966110715895	1
1	8540	13742.852565702086	0
1	8543	13747.123779373944	0
1	8545	13748.024962945723	0
1	8547	13749.118813949403	0
1	8549	13751.884366381522	0
1	8552	13754.60967032969	0
1	8555	13754.886990913691	0
1	8557	13762.811415276249	0
1	8560	13764.830829210373	0
1	8562	13768.67202401867	0
1	8565	13775.369181466015	0
1	8568	13777.031252110106	1
1	8570	13777.702040917689	0
1	8573	13782.154727533816	0
1	8575	13783.66603365067	0
1	8577	13790.627988135601	0
1	8580	13793.31533476	0
1	8583	13796.598502359564	0
1	8585	13804.451869457344	0
1	8588	13804.618709739121	0
1	8590	13809.323694731411	0
1	8592	13811.874262024683	0
1	8595	13813.988756205347	0
1	8598	13818.468998630818	1
1	8600	13825.371136089821	2
1	8602	13825.449218270618	3
1	8604	13837.011935663255	4
1	8606	13838.725284194286	3
1	8609	13842.819568964746	2
1	8612	13849.423321693913	1
1	8615	13857.813589386362	0
1	8618	13860.732409860842	0
1	8620	13862.626715639645	0
1	8622	13863.173433819063	0
1	8625	13864.861236722582	0
1	8628	13865.492029302726	1
1	8630	13870.684054564182	0
1	8633	13870.853816722407	1
1	8635	13873.159316387044	0
1	8638	13875.269095878882	1
1	8640	13876.103469183963	0
1	8643	13879.393535703999	0
1	8645	13881.557692628289	0
1	8647	13890.981196387988	0
1	8650	13892.181989995454	0
1	8653	13895.092938521099	0
1	8655	13898.066429679596	0
1	8657	13900.505340381686	0
1	8660	13904.861618301558	0
1	8662	13905.710355076924	0
1	8665	13907.354113514249	0
1	8668	13908.281415759633	0
1	8670	13911.569550012525	0
1	8672	13912.772039690255	0
1	8675	13918.03130865798	0
1	8678	13926.901512612073	1
1	8680	13932.778706017704	2
1	8682	13935.591937276838	3
1	8684	13940.4454788735	2
1	8687	13941.181350345953	3
1	8689	13955.134106496465	2
1	8692	13957.296147446154	1
1	8695	13957.929125869483	0
1	8698	13959.868572542844	1
1	8700	13962.31421000017	0
1	8703	13964.416781629292	0
1	8705	13965.52138497932	0
1	8708	13967.133138196788	1
1	8710	13976.236038944692	2
1	8712	13977.208115835237	1
1	8715	13979.403348284158	0
1	8718	13983.585363561951	0
1	8720	13985.41617459412	0
1	8723	13994.634676031526	0
1	8725	13996.676015353169	0
1	8727	14003.838368220249	0
1	8729	14008.887406535736	0
1	8732	14015.611635519443	0
1	8735	14019.700716803293	0
1	8738	14030.297048060594	1
1	8740	14032.519021718638	0
1	8743	14037.35800781231	0
1	8745	14039.350665966973	0
1	8748	14042.148563092531	1
1	8750	14046.033124122396	2
1	8752	14047.868861432732	1
1	8755	14057.528775582988	2
1	8757	14059.255610213643	1
1	8760	14059.292091953224	2
1	8762	14060.350970955483	3
1	8764	14061.369206818278	4
1	8766	14064.729331077585	5
1	8768	14067.674980772239	6
1	8770	14069.455955149955	7
1	8772	14069.673583119746	8
1	8774	14076.438257340728	9
1	8776	14081.536834440328	8
1	8779	14087.641222425177	7
1	8782	14087.825208850163	6
1	8785	14103.985826945388	5
1	8788	14108.175870468725	4
1	8791	14110.049381396747	3
1	8794	14110.226130807808	4
1	8796	14112.742682341256	3
1	8799	14118.299396050384	2
1	8802	14118.796111458308	1
1	8805	14119.532803562769	0
1	8808	14123.036728320156	1
1	8810	14124.736251832066	0
1	8813	14128.880404471389	1
1	8815	14128.916744055131	0
1	8818	14131.560292967992	1
1	8820	14132.004810484942	2
1	8822	14135.912065940602	1
1	8825	14136.864690937744	0
1	8828	14141.833754684266	1
1	8830	14151.282739262478	2
1	8832	14152.321271464033	1
1	8835	14157.868679204796	2
1	8837	14159.835881119607	3
1	8839	14163.519964761014	2
1	8842	14167.818913001236	1
1	8845	14169.447122742305	2
1	8847	14186.297113295181	1
1	8850	14188.019380354386	2
1	8852	14190.298150129753	1
1	8855	14199.060422442261	0
1	8858	14200.951299779357	1
1	8860	14200.975141503622	0
1	8863	14201.312956570689	1
1	8865	14201.648824548212	2
1	8867	14204.349736746087	1
1	8870	14205.901042120742	0
1	8873	14208.202138433278	1
1	8875	14214.741732751325	0
1	8878	14215.111737238261	0
1	8880	14226.576998052097	0
1	8883	14228.348594186619	1
1	8885	14228.388259332127	2
1	8887	14230.783051778849	3
1	8889	14233.691861919028	4
1	8891	14243.321055587434	3
1	8894	14243.680747257714	2
1	8897	14249.979553884266	1
1	8900	14250.056936510685	2
1	8902	14250.710728069917	3
1	8904	14251.377855346999	4
1	8906	14251.804688122163	5
1	8908	14253.985455783395	4
1	8911	14255.45756506834	3
1	8914	14256.162940968897	2
1	8917	14260.649362857903	1
1	8920	14261.673388114359	2
1	8922	14270.239989389986	1
1	8925	14274.08359277835	0
1	8928	14292.689840744978	1
1	8930	14296.170437079158	2
1	8932	14298.003330067816	1
1	8935	14303.671066796968	0
1	8938	14305.939992752796	0
1	8940	14308.653891497421	0
1	8942	14310.372058230585	0
1	8945	14322.583893111782	0
1	8948	14331.619195202261	0
1	8950	14335.403392514028	0
1	8952	14335.467824552085	0
1	8955	14340.668499188584	0
1	8958	14343.467980756425	0
1	8960	14347.012281233962	0
1	8963	14351.299746043835	0
1	8965	14353.439939139718	0
1	8967	14359.205740114262	0
1	8969	14361.275318680874	0
1	8971	14368.748439924669	0
1	8974	14369.077446744288	0
1	8977	14372.600048952882	0
1	8979	14382.160664220108	0
1	8982	14387.965473558336	0
1	8984	14394.878060558332	0
1	8987	14395.794079896806	0
1	8989	14396.647568378892	0
1	8992	14399.792913124131	0

