version 2
run POLICY_1-17-20191213-12:40:09-1217
attr configname POLICY_1
attr datetime 20191213-12:40:09
attr experiment POLICY_1
attr inifile omnetpp.ini
attr iterationvars ""
attr iterationvarsf ""
attr measurement ""
attr network Carrefour
attr processid 1217
attr repetition 17
attr replication #17
attr resultdir results
attr runnumber 17
attr seedset 17
param **.policy 1
param **.delta 0s
param **.tillsNumber 7
param **.capacity 0.3
param **.meanInterArrivalTime 8s
param **.meanItemsInACart 12
param **.interArrivalDistribution 0
param **.itemsInCartDistribution 0

vector 0 Carrefour.decider stats_numCustomers:vector ETV
attr "" ""
attr source numCustomers
vector 1 Carrefour.decider stats_numCustomersQueue:vector ETV
attr "" ""
attr source numCustomersQueue
0	714	1205.235761409384	5
0	717	1207.887716417747	4
0	719	1231.677754864136	5
0	722	1239.319505670541	4
0	724	1253.574108077897	5
0	727	1254.525430935475	6
0	730	1258.39812791319	5
0	732	1274.151941992841	4
0	734	1279.523575617054	3
0	736	1289.706092363558	2
0	738	1306.587933012969	3
0	741	1306.951734467447	4
0	744	1308.910991415765	3
0	746	1308.947740074393	4
0	749	1309.071270694245	3
0	751	1309.394945126388	2
0	753	1319.872839178954	3
0	756	1321.608888365859	4
0	759	1328.252360604057	3
0	761	1337.651501844373	4
0	764	1340.242106583095	3
0	766	1342.613724561704	4
0	769	1352.195275516211	3
0	771	1364.579820442076	4
0	774	1366.934180267826	3
0	776	1367.217486131365	4
0	779	1369.494298032765	3
0	781	1375.169924727064	4
0	784	1375.316479531897	5
0	787	1376.484212192544	4
0	789	1378.536842812337	5
0	792	1382.943315817402	4
0	794	1385.121430520868	3
0	796	1391.714622455917	2
0	798	1402.892908866371	1
0	800	1403.505603623927	2
0	803	1405.164295984702	1
0	805	1408.59550509349	2
0	808	1416.106507495751	3
0	811	1419.669084277929	2
0	813	1424.051394061049	1
0	815	1426.124321462207	0
0	817	1429.067639283567	1
0	820	1434.224587559978	0
0	822	1446.817869696032	1
0	825	1463.854750655128	0
0	827	1469.708046077853	1
0	830	1474.032775379256	2
0	833	1475.464123007696	3
0	836	1489.346070075207	2
0	838	1505.777302937084	3
0	841	1513.490275755201	4
0	844	1517.408970514691	5
0	847	1517.59779531602	6
0	850	1524.288086374968	5
0	852	1524.401205580323	4
0	854	1531.410901847024	3
0	856	1532.814773335712	4
0	859	1533.470826237433	5
0	862	1538.373891310925	6
0	865	1548.081443992502	5
0	867	1551.67814363345	4
0	869	1554.109131972794	5
0	872	1556.192143045486	4
0	874	1556.344067110595	5
0	877	1556.7232489008	4
0	879	1581.839318524562	3
0	881	1584.776410676367	4
0	884	1585.426603770834	3
0	886	1588.220891224344	2
0	888	1592.012506784302	3
0	891	1601.351111067524	2
0	893	1609.823943907277	3
0	896	1610.959536666245	2
0	898	1620.253088314359	3
0	901	1621.972513193121	2
0	903	1627.807339457892	3
0	906	1630.375821878135	2
0	908	1638.350937103743	3
0	911	1640.378345843426	4
0	914	1652.744664569573	5
0	917	1658.271673918601	6
0	920	1662.391972823534	5
0	922	1666.83020240295	6
0	925	1666.992892341405	5
0	927	1686.561678333658	4
0	929	1692.634260415681	3
0	931	1695.252374954767	4
0	934	1697.693876300926	5
0	937	1697.812859127094	4
0	939	1698.284376593251	3
0	941	1699.356036897385	4
0	944	1704.777024202768	5
0	947	1707.790772057782	4
0	949	1708.680323918642	3
0	951	1716.990321514128	4
0	954	1722.416183809757	3
0	956	1723.845207367337	4
0	959	1731.452320371645	5
0	962	1742.61402934021	4
0	964	1749.890626865837	5
0	967	1751.357709023527	4
0	969	1756.948923061146	5
0	972	1758.50675835792	4
0	974	1760.343743064256	5
0	977	1765.27296927795	6
0	980	1776.145265264479	5
0	982	1781.129136808653	6
0	985	1783.728682086182	7
0	988	1790.118592139959	8
0	990	1794.668964936518	7
0	993	1801.87720854336	6
0	995	1803.903120066874	7
0	998	1806.952647187395	8
0	1000	1813.184685766014	7
0	1003	1816.014897992524	6
0	1005	1828.163919479817	7
0	1008	1829.356339380899	8
0	1010	1832.647893972518	7
0	1013	1833.372743268754	8
0	1015	1833.569784073128	9
0	1017	1833.962414966088	8
0	1020	1837.055340973358	7
0	1023	1838.367046501341	6
0	1025	1839.404579369929	5
0	1027	1840.554236778678	4
0	1029	1840.802998832084	3
0	1031	1851.869005027075	2
0	1033	1852.240810559518	3
0	1036	1857.615947449221	4
0	1039	1863.507334815668	3
0	1041	1865.801611754068	4
0	1044	1867.463279236895	3
0	1046	1873.857698403359	4
0	1049	1874.433383544755	5
0	1052	1878.048342252286	6
0	1055	1881.59788550336	5
0	1057	1883.588462768392	6
0	1060	1894.430132580264	7
0	1063	1896.38499362386	6
0	1065	1898.5200112508	5
0	1067	1900.15421191804	4
0	1069	1906.018377761514	5
0	1072	1914.869510254847	6
0	1075	1928.020371043659	7
0	1078	1930.180044332354	6
0	1080	1931.217579289131	5
0	1082	1936.358606219561	4
0	1084	1949.012143338922	5
0	1087	1949.452687749414	4
0	1089	1954.262619460767	5
0	1092	1957.817397350257	6
0	1095	1966.555612743345	5
0	1097	1968.216731203416	4
0	1099	1975.048934582053	5
0	1102	1976.10865468384	6
0	1105	1992.399543533502	5
0	1107	2004.182962706233	4
0	1109	2010.420964617095	3
0	1111	2019.387426577714	4
0	1114	2025.192076561137	5
0	1117	2047.147971580245	6
0	1120	2049.973388832204	5
0	1122	2050.296072743588	4
0	1124	2050.613732813082	3
0	1126	2053.350851452663	2
0	1128	2059.977948009441	1
0	1130	2065.970660828725	2
0	1133	2070.24319402695	3
0	1136	2076.022268562688	4
0	1139	2095.665331593869	3
0	1141	2099.964528564431	4
0	1144	2102.869889496424	3
0	1146	2104.752461989698	4
0	1149	2105.500727853797	3
0	1151	2107.945755846258	4
0	1154	2110.798107857332	3
0	1156	2113.49600890236	4
0	1159	2121.945421818897	5
0	1162	2126.73084019314	4
0	1164	2130.281497365642	3
0	1166	2133.105493171084	2
0	1168	2137.144079151767	3
0	1171	2137.60385016923	2
0	1173	2141.909786577227	3
0	1176	2151.236704522459	2
0	1178	2158.648131590302	1
0	1180	2169.103100303802	2
0	1183	2177.996096203335	3
0	1186	2182.429986473763	2
0	1188	2184.547810479769	1
0	1190	2185.470710433911	2
0	1193	2192.16782820584	3
0	1196	2195.179660757805	4
0	1199	2195.417658373313	5
0	1202	2208.157275301909	6
0	1205	2223.665111539643	5
0	1207	2233.532364228811	6
0	1210	2239.294239531776	7
0	1213	2239.882623916806	8
0	1215	2250.952188141496	7
0	1218	2251.704443855794	8
0	1220	2254.814940544616	9
0	1222	2257.477114073857	8
0	1225	2259.177447286928	7
0	1228	2262.669108034012	8
0	1230	2262.69956998928	9
0	1232	2262.940811353278	8
0	1235	2264.680491130477	7
0	1238	2266.061962164479	6
0	1240	2280.833048414884	7
0	1243	2282.313774016636	8
0	1245	2283.282116192201	9
0	1247	2284.019364805858	8
0	1250	2284.243906056941	9
0	1252	2288.988568906785	10
0	1254	2289.610515524004	11
0	1256	2294.584095233269	12
0	1258	2295.20292593743	13
0	1260	2296.240550569575	14
0	1262	2301.309780213749	15
0	1264	2303.513120983125	14
0	1267	2305.24487088514	13
0	1270	2307.663966858411	12
0	1273	2309.230163893248	13
0	1275	2309.945183296206	12
0	1278	2311.075401979997	13
0	1280	2311.939012658916	14
0	1282	2314.349598593119	15
0	1284	2322.161546567537	14
0	1287	2334.819935266646	13
0	1290	2335.815060010845	14
0	1292	2335.840728741511	15
0	1294	2339.771356051855	14
0	1297	2340.93806157495	15
0	1299	2342.08654559404	16
0	1301	2348.512577892983	15
0	1304	2351.477384846256	14
0	1307	2355.579549566141	13
0	1310	2358.808771555993	14
0	1312	2360.365286109781	13
0	1315	2360.391400555635	14
0	1317	2362.095204567275	15
0	1319	2363.098308132519	16
0	1321	2367.619717797473	17
0	1323	2374.598503272744	16
0	1326	2378.85838705472	15
0	1329	2380.244627963729	14
0	1332	2387.544192273281	15
0	1334	2394.786310628794	14
0	1337	2396.485060385903	15
0	1339	2401.470915141783	14
0	1342	2402.46686008774	13
0	1345	2407.024264948905	14
0	1347	2411.476447485923	15
0	1349	2413.205356959089	14
0	1352	2413.493236474507	15
0	1354	2415.691505904021	14
0	1357	2420.670269328261	13
0	1360	2423.544546513349	12
0	1363	2434.726698935336	11
0	1366	2435.090834571709	10
0	1369	2444.73905282233	11
0	1371	2444.846965253728	12
0	1373	2447.180858869169	13
0	1375	2448.565912525405	14
0	1377	2450.829313663795	15
0	1379	2450.93049387959	16
0	1381	2453.285054463969	15
0	1384	2453.779396179074	16
0	1386	2454.29640668984	15
0	1389	2457.291970653134	14
0	1392	2461.471788586941	13
0	1395	2464.679180115793	12
0	1398	2465.550023431913	13
0	1400	2468.254194486874	14
0	1402	2468.477101029671	13
0	1405	2468.664025104313	14
0	1407	2470.746602201344	13
0	1410	2471.531359860725	12
0	1413	2471.718051544204	13
0	1415	2473.40611261214	12
0	1418	2477.258249489093	11
0	1421	2483.242774933926	12
0	1423	2483.559881130316	13
0	1425	2498.525682131724	14
0	1427	2499.699982048817	13
0	1430	2500.308478507634	12
0	1433	2500.522619962405	11
0	1436	2503.047514439054	10
0	1439	2503.102458525542	9
0	1442	2504.682398419481	10
0	1444	2504.76606334911	9
0	1447	2504.944463291343	10
0	1449	2511.779380055714	9
0	1452	2518.647551024216	8
0	1455	2522.144648306313	9
0	1457	2525.062328278757	8
0	1460	2534.175674224032	7
0	1463	2541.915638021454	6
0	1465	2548.494855322642	5
0	1467	2551.681152254229	6
0	1470	2552.005093729572	5
0	1472	2553.445598312776	6
0	1475	2559.712359804479	5
0	1477	2562.783782692364	4
0	1479	2563.289270902308	3
0	1481	2567.82067187119	4
0	1484	2573.620055312274	5
0	1487	2574.582969910179	4
0	1489	2578.373729085347	5
0	1492	2585.633766829813	6
0	1495	2598.477854981216	5
0	1497	2606.316146412569	4
0	1499	2606.589771478333	3
0	1501	2612.22807301624	2
0	1503	2613.86570364192	3
0	1506	2618.901425717716	2
0	1508	2620.873892559493	1
0	1510	2627.013850060611	2
0	1513	2629.554117352825	3
0	1516	2636.706847933054	2
0	1518	2642.792950169123	1
0	1520	2644.196213407003	2
0	1523	2657.59094910719	3
0	1526	2658.666449299446	2
0	1528	2658.902023945073	3
0	1531	2673.07681569463	2
0	1533	2701.898548925763	3
0	1536	2702.18974741694	4
0	1539	2703.795382344564	5
0	1542	2706.078596569982	4
0	1544	2712.696851298043	5
0	1547	2717.249100271755	6
0	1550	2720.584867857577	7
0	1553	2721.147087719449	6
0	1555	2722.566297205464	5
0	1557	2728.462087862857	6
0	1560	2732.153730353956	7
0	1563	2734.220119336383	6
0	1565	2740.075282730834	5
0	1567	2740.867942536557	6
0	1570	2741.76907765812	5
0	1572	2743.364929134671	6
0	1575	2756.524018295719	7
0	1578	2757.069760910859	8
0	1580	2758.444135449175	7
0	1583	2761.507435764213	8
0	1585	2770.120614278754	7
0	1588	2776.025175650138	6
0	1590	2777.156957396071	5
0	1592	2779.284947880785	6
0	1595	2779.543681444068	7
0	1598	2781.036616320983	6
0	1600	2781.620461335651	5
0	1602	2788.435822182262	4
0	1604	2802.202160806132	3
0	1606	2802.403235954576	4
0	1609	2807.605904626786	5
0	1612	2811.538668122754	4
0	1614	2813.157217145011	5
0	1617	2814.544231167056	4
0	1619	2819.092936785047	3
0	1621	2821.77749305396	4
0	1624	2824.059244949647	5
0	1627	2826.422816322247	6
0	1630	2828.010119274183	5
0	1632	2829.800928714782	6
0	1635	2829.850479221594	7
0	1638	2829.892231122605	8
0	1640	2830.373811792635	9
0	1642	2834.73104706906	10
0	1644	2836.080185600472	11
0	1646	2837.257273823109	10
0	1649	2841.403689134501	11
0	1651	2849.916416196533	10
0	1654	2861.387050645165	11
0	1656	2866.359560034681	10
0	1659	2869.818054477554	9
0	1662	2870.040966141212	10
0	1664	2874.356243614728	9
0	1667	2876.664945687617	10
0	1669	2878.997981094029	9
0	1672	2879.036605085102	10
0	1674	2879.803172637147	11
0	1676	2880.202394150297	12
0	1678	2880.393175835623	11
0	1681	2885.473780312916	10
0	1684	2892.45019822269	9
0	1687	2900.457965470232	8
0	1690	2904.402192559039	7
0	1693	2904.835870975061	6
0	1695	2906.576058219602	7
0	1698	2909.221376196435	8
0	1700	2911.072662175367	9
0	1702	2912.553711673176	10
0	1704	2914.782932408474	9
0	1707	2916.922950034063	8
0	1710	2918.296080121247	9
0	1712	2925.360303143093	10
0	1714	2926.51251740423	9
0	1717	2927.000453745146	10
0	1719	2932.433113769061	9
0	1722	2933.496647222088	8
0	1725	2933.806736117826	7
0	1728	2950.41426144556	8
0	1730	2952.010763477545	7
0	1733	2952.135362772141	6
0	1735	2956.825850281012	7
0	1738	2957.906899883164	6
0	1740	2960.397760170111	5
0	1742	2969.299717086018	6
0	1745	2971.302214827524	7
0	1748	2974.492928976207	6
0	1750	2979.58445199934	5
0	1752	2982.295011918999	4
0	1754	2983.22456182703	5
0	1757	3002.758538571397	4
0	1759	3018.311478313647	5
0	1762	3018.727474107449	6
0	1765	3022.315126386584	5
0	1767	3022.714258468078	6
0	1770	3023.943171310994	7
0	1773	3024.089145804294	8
0	1775	3032.891450209945	9
0	1777	3035.676735579184	8
0	1780	3036.163273425618	7
0	1783	3036.367366392151	8
0	1785	3037.546335784282	9
0	1787	3047.813465553426	10
0	1789	3056.403456932365	9
0	1792	3057.355803659221	8
0	1795	3060.827231544412	9
0	1797	3062.993453351185	10
0	1799	3071.467598778178	11
0	1801	3071.635148603654	10
0	1804	3072.526942478382	11
0	1806	3073.169038946001	10
0	1809	3073.369456702765	9
0	1812	3078.867446390888	8
0	1815	3082.177939807898	7
0	1818	3083.303685517797	8
0	1820	3087.666996220321	7
0	1823	3090.435834033172	8
0	1825	3090.631041744684	9
0	1827	3094.492576021976	8
0	1830	3096.144871334446	9
0	1832	3098.282940293547	8
0	1835	3109.679694964302	9
0	1837	3112.282908692949	8
0	1840	3112.681904201728	9
0	1842	3115.312000397739	8
0	1845	3118.99959237175	9
0	1847	3119.777757160275	8
0	1850	3123.304603164262	9
0	1852	3137.271802797637	10
0	1854	3138.783601034072	9
0	1857	3142.193789988609	10
0	1859	3142.887300811824	11
0	1861	3144.565306384826	10
0	1864	3149.249303995673	9
0	1867	3149.788643458521	8
0	1870	3154.044628869396	9
0	1872	3154.354444173163	10
0	1874	3155.235451059897	9
0	1877	3155.246846736393	10
0	1879	3157.309783323128	9
0	1882	3161.219883874636	8
0	1885	3161.80171202453	7
0	1888	3163.882471128309	6
0	1890	3163.893497385273	7
0	1893	3164.341599646404	8
0	1895	3175.275770223524	7
0	1898	3175.559253980795	6
0	1900	3180.747954709976	5
0	1902	3183.802611921725	6
0	1905	3199.916251666662	7
0	1908	3201.406184889402	6
0	1910	3203.112438256811	5
0	1912	3206.018939617471	6
0	1915	3206.462247760865	7
0	1918	3210.148315619393	6
0	1920	3214.97075777405	7
0	1923	3215.039347246376	6
0	1925	3216.826045417287	5
0	1927	3228.743876318194	6
0	1930	3231.166812863517	7
0	1933	3232.663346809012	6
0	1935	3232.905850213156	5
0	1937	3240.870353410567	6
0	1940	3251.576980330668	5
0	1942	3254.144377006655	6
0	1945	3258.590696536744	5
0	1947	3258.84583049798	4
0	1949	3267.188276098374	5
0	1952	3285.496093609428	4
0	1954	3286.569258006668	3
0	1956	3288.378421962865	2
0	1958	3289.692532278629	3
0	1961	3290.795121417047	4
0	1964	3300.646120437135	3
0	1966	3302.180479002547	4
0	1969	3305.850722882354	5
0	1972	3307.462118968704	6
0	1975	3309.296364466076	5
0	1977	3312.04551645954	4
0	1979	3316.63339486122	5
0	1982	3317.195913501731	4
0	1984	3322.340572280368	5
0	1987	3327.555672207902	6
0	1990	3329.763711729782	5
0	1992	3335.609046418007	4
0	1994	3345.056709460045	3
0	1996	3349.269752625659	2
0	1998	3366.547002960094	3
0	2001	3367.201237464647	4
0	2004	3373.008698004267	3
0	2006	3376.308920650473	4
0	2009	3381.115579757759	5
0	2012	3386.410587972127	4
0	2014	3393.943973131588	5
0	2017	3398.283781492218	4
0	2019	3412.852974505532	3
0	2021	3414.155016453711	2
0	2023	3415.185321499696	3
0	2026	3424.907361634491	4
0	2029	3425.610320744438	3
0	2031	3436.406771615198	4
0	2034	3437.356319519467	5
0	2037	3438.466861395794	4
0	2039	3449.644545998441	5
0	2042	3450.320997829534	4
0	2044	3452.106966789306	5
0	2047	3456.428125709567	4
0	2049	3462.836928427731	3
0	2051	3463.544341639891	2
0	2053	3469.322832056362	1
0	2055	3478.981259858428	2
0	2058	3489.175288645214	3
0	2061	3501.930945884931	4
0	2064	3503.195116186133	3
0	2066	3505.543707993208	4
0	2069	3507.172031837436	3
0	2071	3508.810814752656	4
0	2074	3527.614690377129	3
0	2076	3529.968087150722	4
0	2079	3531.76650123532	3
0	2081	3535.909578960687	4
0	2084	3538.494795474733	3
0	2086	3540.603731132344	4
0	2089	3543.521606611582	3
0	2091	3556.084978197511	2
0	2093	3564.454493446357	3
0	2096	3570.936519353078	4
0	2099	3572.894683241245	3
0	2101	3583.395668962707	4
0	2104	3584.158133154742	5
0	2107	3584.178334614288	6
0	2110	3587.517962639499	7
0	2113	3590.888513129027	8
0	2115	3600.552315706224	9
0	2117	3601.789740546364	10
0	2119	3602.202514506571	11
0	2121	3604.86275517448	10
0	2124	3605.366883034766	11
0	2126	3607.869671294393	12
0	2128	3608.188411714064	11
0	2131	3610.681670877106	10
0	2134	3611.996509578437	9
0	2137	3612.466603718071	8
0	2140	3617.484554900268	7
0	2143	3622.578033518139	6
0	2145	3624.755586026974	5
0	2147	3629.01270734642	6
0	2150	3632.388114636741	7
0	2153	3635.292165157503	8
0	2155	3636.629767331244	9
0	2157	3641.198711493394	8
0	2160	3670.814369782303	7
0	2163	3672.064957193125	8
0	2165	3681.734210906356	9
0	2167	3681.780136736222	10
0	2169	3690.108201246364	9
0	2172	3699.784703489031	10
0	2174	3707.999075360659	11
0	2176	3708.71558226461	12
0	2178	3711.849091031991	11
0	2181	3715.722398939283	12
0	2183	3720.256610391372	13
0	2185	3728.363252668553	14
0	2187	3730.660388221769	15
0	2189	3730.736578439902	16
0	2191	3732.412925233625	15
0	2194	3736.262734581836	16
0	2196	3742.711174055092	17
0	2198	3743.732620316178	18
0	2200	3749.608390933895	19
0	2202	3750.48001195646	18
0	2205	3765.030479075792	19
0	2207	3772.772253211863	20
0	2209	3782.665882337891	21
0	2211	3786.828935320023	22
0	2213	3792.522431506629	21
0	2216	3802.4483369378	22
0	2218	3808.43030467934	21
0	2221	3810.712731277302	20
0	2224	3812.166581648419	19
0	2227	3816.224933945248	20
0	2229	3818.109322318513	19
0	2232	3818.112056883872	18
0	2235	3823.338099691464	17
0	2238	3832.070260276904	18
0	2240	3836.026858192979	17
0	2243	3836.217878873223	16
0	2246	3836.845889179617	17
0	2248	3837.890460506801	16
0	2251	3839.077671686574	15
0	2254	3841.559458461963	14
0	2257	3844.38159692876	15
0	2259	3846.553612772674	14
0	2262	3846.667446242286	13
0	2265	3855.586226216672	12
0	2268	3856.635259819795	11
0	2271	3860.10416420922	10
0	2274	3861.283883709188	9
0	2277	3868.233682943688	8
0	2280	3868.846239455372	9
0	2282	3869.715929633624	10
0	2284	3873.871046349047	9
0	2287	3877.173656124938	10
0	2289	3878.432108347443	9
0	2292	3887.058315016038	8
0	2295	3891.085065873716	9
0	2297	3891.382190399599	8
0	2300	3892.324093705658	7
0	2303	3894.108875717885	6
0	2305	3897.972858059724	5
0	2307	3900.947002574845	6
0	2310	3908.622996045848	5
0	2312	3908.88902898036	6
0	2315	3909.259219761086	5
0	2317	3924.996372368529	4
0	2319	3925.95957524705	5
0	2322	3932.082219835951	6
0	2325	3932.854851532024	7
0	2328	3935.924030188156	8
0	2330	3948.392100516719	7
0	2333	3953.327116610404	8
0	2335	3958.051708614009	9
0	2337	3961.63429946798	10
0	2339	3961.929103855768	11
0	2341	3974.730382744059	10
0	2344	3974.855592736955	9
0	2347	3978.878385788562	8
0	2350	3979.959654379719	9
0	2352	3980.704618265608	10
0	2354	3995.584259961484	9
0	2357	3996.931416273897	10
0	2359	4004.965792958628	9
0	2362	4005.356257928355	8
0	2365	4017.83816059171	7
0	2368	4023.737846828971	6
0	2370	4027.259273478948	5
0	2372	4033.669229707245	4
0	2374	4033.981740069248	5
0	2377	4038.742314462783	6
0	2380	4042.919522442848	5
0	2382	4050.246988800129	6
0	2385	4056.517257200769	7
0	2388	4056.860880152256	6
0	2390	4058.790896779945	5
0	2392	4058.80229236821	4
0	2394	4059.637131394866	3
0	2396	4061.017482980619	4
0	2399	4093.718248395581	3
0	2401	4095.78094547821	4
0	2404	4096.179139244844	5
0	2407	4102.86888123819	4
0	2409	4104.806647407194	3
0	2411	4122.482259435002	4
0	2414	4124.258945045304	5
0	2417	4129.275628798854	4
0	2419	4132.165015067765	5
0	2422	4138.130437311694	4
0	2424	4145.662080527289	3
0	2426	4146.579502447313	4
0	2429	4151.079319784809	3
0	2431	4165.390705246784	2
0	2433	4165.617589056834	3
0	2436	4171.533744586157	4
0	2439	4174.580030670994	3
0	2441	4175.02907648718	2
0	2443	4177.551741455221	3
0	2446	4178.515942518945	4
0	2449	4184.98713092949	3
0	2451	4186.169917620023	4
0	2454	4186.699091008292	5
0	2457	4187.930091391132	4
0	2459	4192.554527962897	5
0	2462	4193.169236667823	6
0	2465	4196.966989478551	5
0	2467	4198.117537363792	6
0	2470	4198.935965685548	7
0	2473	4205.069301871682	8
0	2475	4212.993844871339	9
0	2477	4219.926126608665	8
0	2480	4222.162788421812	7
0	2483	4225.336607580922	6
0	2485	4225.925936725274	5
0	2487	4227.870663342352	6
0	2490	4234.060634969993	7
0	2493	4236.503685549292	6
0	2495	4252.383399749472	7
0	2498	4255.636240618239	8
0	2500	4256.362108229593	7
0	2503	4256.371839284372	8
0	2505	4256.830959211722	9
0	2507	4257.032518821157	8
0	2510	4259.687190148369	7
0	2513	4264.076289057065	8
0	2515	4268.997058934462	7
0	2518	4271.265794170032	6
0	2520	4273.627242972097	7
0	2523	4275.477658433558	6
0	2525	4283.783305501998	7
0	2528	4286.456650525528	8
0	2530	4288.356028021677	7
0	2533	4288.610266203176	6
0	2535	4294.191794660813	7
0	2538	4295.724440629518	8
0	2540	4309.899976387429	7
0	2543	4322.721222734165	8
0	2545	4326.833410381957	7
0	2548	4326.993909551776	8
0	2550	4327.272473817398	9
0	2552	4329.41384019041	10
0	2554	4335.919489015087	9
0	2557	4336.007211633085	8
0	2560	4338.041567529459	7
0	2563	4339.84074914163	6
0	2565	4342.246474694887	5
0	2567	4345.710109718093	6
0	2570	4350.280058687119	5
0	2572	4355.11562588722	6
0	2575	4360.115135960622	7
0	2578	4366.396112335314	6
0	2580	4366.860217468555	5
0	2582	4366.885970470194	4
0	2584	4378.791768982074	5
0	2587	4380.114771615183	6
0	2590	4385.370180513313	5
0	2592	4388.338667869181	4
0	2594	4394.656509533604	5
0	2597	4396.21379842228	6
0	2600	4405.298045502156	5
0	2602	4406.450297393276	4
0	2604	4408.464086681984	3
0	2606	4409.157765155352	4
0	2609	4414.45901385993	3
0	2611	4414.502408278655	4
0	2614	4420.959953347571	5
0	2617	4422.989425308058	4
0	2619	4430.172948770778	3
0	2621	4430.278012348206	2
0	2623	4430.821575677953	3
0	2626	4439.537854614579	2
0	2628	4444.744516705682	1
0	2630	4445.929407834944	2
0	2633	4452.685489359872	3
0	2636	4459.239999310825	4
0	2639	4460.495992263844	5
0	2642	4466.383433671876	4
0	2644	4468.804284783854	5
0	2647	4469.566907949586	4
0	2649	4469.852908241191	5
0	2652	4472.531813201252	6
0	2655	4475.065556982756	7
0	2658	4480.972941421594	8
0	2660	4481.635927475142	7
0	2663	4484.366915782177	8
0	2665	4484.963196792997	9
0	2667	4489.778299043064	10
0	2669	4492.575013497923	9
0	2672	4494.878105043738	8
0	2675	4497.838519657577	7
0	2678	4500.511818201204	8
0	2680	4502.203184917861	9
0	2682	4503.586890761764	8
0	2685	4504.049582481832	7
0	2688	4507.165055469992	6
0	2690	4526.427332617854	5
0	2692	4530.219747607257	4
0	2694	4533.499154193733	5
0	2697	4536.573764592572	6
0	2700	4537.271679732114	7
0	2703	4537.922396147561	6
0	2705	4538.288928397675	5
0	2707	4538.739409902025	4
0	2709	4539.239028344632	5
0	2712	4548.776832526311	6
0	2715	4549.507193696113	5
0	2717	4565.796978077855	4
0	2719	4566.615480324363	3
0	2721	4570.697076406216	4
0	2724	4573.611996253972	5
0	2727	4577.438683176664	6
0	2730	4582.920515358677	5
0	2732	4595.365068368631	6
0	2735	4600.619154473318	5
0	2737	4603.189073064507	4
0	2739	4605.233480385782	5
0	2742	4607.183402336406	4
0	2744	4613.003019221554	5
0	2747	4614.243248214964	6
0	2750	4618.028795274413	7
0	2753	4620.242549308217	6
0	2755	4621.423166288917	7
0	2758	4622.685804230195	6
0	2760	4623.175193407389	7
0	2763	4629.297703269642	6
0	2765	4630.778643622639	7
0	2768	4632.868952683418	8
0	2770	4634.914374610998	7
0	2773	4637.731591788804	8
0	2775	4638.331105847743	9
0	2777	4641.16826104052	10
0	2779	4641.954412108656	9
0	2782	4649.297053567788	8
0	2785	4650.403352029221	9
0	2787	4651.275004814336	8
0	2790	4653.089192316642	7
0	2793	4659.589163567735	6
0	2795	4660.715206276888	7
0	2798	4669.35128806388	8
0	2800	4671.745940530834	7
0	2803	4673.725309746151	8
0	2805	4674.83859022168	7
0	2808	4680.654031710106	8
0	2810	4686.635752965049	7
0	2813	4689.924164031468	6
0	2815	4691.689186252752	5
0	2817	4692.212299633013	4
0	2819	4693.071943320184	3
0	2821	4693.442063402795	4
0	2824	4695.257661633901	5
0	2827	4704.325693050403	6
0	2830	4704.739695180233	7
0	2833	4709.3025791772	6
0	2835	4714.1276853105	7
0	2838	4721.349591530647	6
0	2840	4722.795468211601	5
0	2842	4736.935865919419	6
0	2845	4740.126200038768	5
0	2847	4746.805166205314	4
0	2849	4747.074947382183	3
0	2851	4747.974118263948	4
0	2854	4751.492555369697	5
0	2857	4762.123468365228	6
0	2860	4762.465470474808	5
0	2862	4762.74189071738	4
0	2864	4766.666916882155	3
0	2866	4772.401997092524	2
0	2868	4781.058691108787	1
0	2870	4781.256272410349	2
0	2873	4782.144851669468	3
0	2876	4789.795917491288	2
0	2878	4796.052935610486	1
0	2880	4804.891911653504	0
0	2882	4837.018676164832	1
0	2885	4838.086044560782	2
0	2888	4848.391859986398	3
0	2891	4855.991285238283	4
0	2894	4863.403259719635	5
0	2897	4863.670850923398	4
0	2899	4863.704617254613	5
0	2902	4866.88298592271	4
0	2904	4886.864087378416	5
0	2907	4887.690688904084	4
0	2909	4892.57794707952	3
0	2911	4902.943747713417	2
0	2913	4910.851430229737	3
0	2916	4911.854072350209	4
0	2919	4921.457344014893	3
0	2921	4950.39979012198	4
0	2924	4953.416975517436	3
0	2926	4953.872095427329	4
0	2929	4955.447043874416	5
0	2932	4956.561360748884	6
0	2935	4960.011330884858	7
0	2938	4964.18405307102	8
0	2940	4964.575793683293	7
0	2943	4966.869526360206	6
0	2945	4973.495413966799	5
0	2947	4978.834856978744	6
0	2950	4988.331273046525	7
0	2953	4999.289129334466	8
0	2955	5000.895332897826	7
0	2958	5001.26412698415	8
0	2960	5003.395275587874	9
0	2962	5003.52490814363	10
0	2964	5012.361902007211	9
0	2967	5017.763423281157	8
0	2970	5025.319959146378	7
0	2973	5027.871716740762	6
0	2975	5035.968675211776	5
0	2977	5036.355608396862	4
0	2979	5037.593065062113	5
0	2982	5039.205769500251	6
0	2985	5041.145806465663	5
0	2987	5041.647440013676	6
0	2990	5043.330477754613	5
0	2992	5049.551238650118	6
0	2995	5056.882144318197	7
0	2998	5063.49531655246	8
0	3000	5066.34852796494	7
0	3003	5069.347899658956	8
0	3005	5070.45036537129	9
0	3007	5071.039898701029	10
0	3009	5072.20163020199	11
0	3011	5081.844337074452	10
0	3014	5081.921645260788	11
0	3016	5089.541282557263	10
0	3019	5095.652911070112	9
0	3022	5097.873023487743	10
0	3024	5101.588688172037	11
0	3026	5103.485301731166	10
0	3029	5105.224926826051	9
0	3032	5108.308273696191	8
0	3035	5112.395726857786	9
0	3037	5127.803235715395	8
0	3040	5129.295731354957	9
0	3042	5130.278262021877	8
0	3045	5130.680537476909	7
0	3048	5133.623206308301	6
0	3050	5135.481129491319	7
0	3053	5136.051585187669	6
0	3055	5144.168101836912	7
0	3058	5153.8480426836	8
0	3060	5153.912059182133	7
0	3063	5154.170976840239	6
0	3065	5154.523244588078	5
0	3067	5154.597621817844	4
0	3069	5162.178018018007	3
0	3071	5169.440799415945	2
0	3073	5175.058038257462	1
0	3075	5176.815785138799	0
0	3077	5185.04667830825	1
0	3080	5191.779388307173	2
0	3083	5195.712703634241	3
0	3086	5200.573329317339	4
0	3089	5211.072326584875	3
0	3091	5216.754817214594	4
0	3094	5218.60826339837	5
0	3097	5220.682973131764	6
0	3100	5221.559122027109	5
0	3102	5222.113586743706	6
0	3105	5222.252171952403	5
0	3107	5224.630399476296	4
0	3109	5228.141546036881	3
0	3111	5239.282208290129	2
0	3113	5239.942025812062	3
0	3116	5241.204248161763	2
0	3118	5252.541357452575	1
0	3120	5264.511601412532	2
0	3123	5269.812228945795	3
0	3126	5273.533847531249	4
0	3129	5274.269656979473	3
0	3131	5278.782814512337	4
0	3134	5281.158507348201	3
0	3136	5294.880357962358	4
0	3139	5296.574286365999	3
0	3141	5308.135719652486	4
0	3144	5308.265736973519	3
0	3146	5312.605720275879	2
0	3148	5318.763632546332	3
0	3151	5334.452527616968	4
0	3154	5341.379346898781	3
0	3156	5351.433059145292	2
0	3158	5353.227242038907	3
0	3161	5380.257366167062	4
0	3164	5382.620473037735	5
0	3167	5384.197338033233	6
0	3170	5385.016706597232	7
0	3173	5388.406674340014	6
0	3175	5391.464224427777	7
0	3178	5392.005284009528	8
0	3180	5393.140529625573	9
0	3182	5393.435986883656	10
0	3184	5393.484050192875	9
0	3187	5396.260980184971	8
0	3190	5397.118041688509	7
0	3193	5398.887607341332	8
0	3195	5399.144939570242	7
0	3198	5399.310088978204	6
0	3200	5400.362218317508	5
0	3202	5404.15527969722	4
0	3204	5404.208820061708	3
0	3206	5406.950073817244	4
0	3209	5407.225290783232	5
0	3212	5409.614998469785	6
0	3215	5411.349511039585	5
0	3217	5411.573671439605	4
0	3219	5412.269674461096	3
0	3221	5413.972250136311	4
0	3224	5416.793536509043	5
0	3227	5420.41322493017	4
0	3229	5422.295500846088	5
0	3232	5426.335672855306	4
0	3234	5433.673049353214	3
0	3236	5439.392293248091	4
0	3239	5440.993496781451	3
0	3241	5442.089930928228	4
0	3244	5442.8343569677	5
0	3247	5444.547834246018	6
0	3250	5446.0209713032	5
0	3252	5451.633546821966	6
0	3255	5453.023766880192	5
0	3257	5477.36580603422	6
0	3260	5479.09733312451	7
0	3263	5482.390260501117	6
0	3265	5483.730490154499	5
0	3267	5487.520100580661	6
0	3270	5494.929257529923	7
0	3273	5496.906489413352	6
0	3275	5505.362089648304	5
0	3277	5505.867881732349	6
0	3280	5507.322526296812	7
0	3283	5508.004945541858	6
0	3285	5520.320978486741	5
0	3287	5520.79200774821	6
0	3290	5521.972653193004	5
0	3292	5523.377041695158	4
0	3294	5529.10777894236	5
0	3297	5533.366068475941	4
0	3299	5535.262099418535	3
0	3301	5536.567457056313	4
0	3304	5543.369921802086	3
0	3306	5547.249958709674	4
0	3309	5551.1359831431	5
0	3312	5561.248385380494	4
0	3314	5566.669777545193	5
0	3317	5568.569070383774	6
0	3320	5571.718641316872	7
0	3323	5572.055798609339	8
0	3325	5577.209572836823	7
0	3328	5579.757185302593	8
0	3330	5581.56516523409	7
0	3333	5584.831123985587	6
0	3335	5586.698348867416	7
0	3338	5586.864747968507	6
0	3340	5589.700953342111	7
0	3343	5592.655189420747	6
0	3345	5600.708497567544	5
0	3347	5602.334696375329	4
0	3349	5605.762081455095	3
0	3351	5606.308823876348	4
0	3354	5623.351341998639	5
0	3357	5623.603215855837	6
0	3360	5629.303204785307	5
0	3362	5634.16425770151	4
0	3364	5641.001390916908	3
0	3366	5652.6467466763	4
0	3369	5653.287011726374	5
0	3372	5653.826441756051	4
0	3374	5656.519597790061	5
0	3377	5661.251187756717	6
0	3380	5662.257538708849	5
0	3382	5664.593663928938	4
0	3384	5673.121343852424	5
0	3387	5674.371139716402	4
0	3389	5679.252912592333	3
0	3391	5682.37373480587	4
0	3394	5685.323186519986	3
0	3396	5686.837321586299	4
0	3399	5686.838441244767	5
0	3402	5693.138601706965	6
0	3405	5694.640663712681	5
0	3407	5697.917398510685	6
0	3410	5706.444434760747	5
0	3412	5716.823269763729	4
0	3414	5719.894986078062	5
0	3417	5723.102008188503	6
0	3420	5723.448040938393	5
0	3422	5723.566229921822	4
0	3424	5724.244063923882	5
0	3427	5725.141797595696	4
0	3429	5729.356340340449	5
0	3432	5729.559311236788	6
0	3435	5733.277832022697	7
0	3438	5736.318122990561	6
0	3440	5738.278198400777	7
0	3443	5740.66886699569	6
0	3445	5748.292593028895	7
0	3448	5748.409560242079	6
0	3450	5749.665441884966	5
0	3452	5757.531503727707	6
0	3455	5760.510377563332	7
0	3458	5762.655239406434	6
0	3460	5763.438255381898	7
0	3463	5768.237818557056	6
0	3465	5769.45311156512	5
0	3467	5770.063321327039	4
0	3469	5773.854621776346	3
0	3471	5774.12031399332	4
0	3474	5776.24007426683	5
0	3477	5776.858544017501	4
0	3479	5777.70324585284	5
0	3482	5778.833023292271	6
0	3485	5778.868285897572	7
0	3488	5780.197779308747	8
0	3490	5781.917252978206	7
0	3493	5783.201025520706	6
0	3495	5796.878285707588	5
0	3497	5799.230503266258	6
0	3500	5800.826241926865	7
0	3503	5803.946264234123	8
0	3505	5805.66633299731	7
0	3508	5807.578606925123	8
0	3510	5810.68535575312	7
0	3513	5811.632286246184	6
0	3515	5813.145960303573	7
0	3518	5814.505714914672	8
0	3520	5814.939290937735	7
0	3523	5816.232620048155	8
0	3525	5820.417856127056	9
0	3527	5820.906924479857	8
0	3530	5823.17347934888	7
0	3533	5823.377285354902	6
0	3535	5827.181235020681	7
0	3538	5828.791384372774	8
0	3540	5833.577092815357	9
0	3542	5834.291128276836	8
0	3545	5835.967139657541	7
0	3548	5836.630116723777	6
0	3550	5837.246285423261	7
0	3553	5841.742597634592	8
0	3555	5842.115223045081	7
0	3558	5858.920002746102	8
0	3560	5859.639143269599	7
0	3563	5865.485290400572	6
0	3565	5866.30909887265	5
0	3567	5867.577503641417	6
0	3570	5875.013307730688	7
0	3573	5877.752801304717	8
0	3575	5878.962484325063	9
0	3577	5883.317069237966	8
0	3580	5895.984634969555	9
0	3582	5896.360991496046	8
0	3585	5906.118013953243	9
0	3587	5908.053656475467	10
0	3589	5909.486454815859	11
0	3591	5915.442629062124	10
0	3594	5917.559640962465	9
0	3597	5918.931150426917	10
0	3599	5925.242872930413	9
0	3602	5926.342650570087	10
0	3604	5928.645530617868	11
0	3606	5931.031782408508	10
0	3609	5937.071136786878	11
0	3611	5939.626978988301	10
0	3614	5943.247572087729	9
0	3617	5945.384155506748	8
0	3620	5947.290229950075	7
0	3623	5950.834297060576	6
0	3625	5951.260381904736	5
0	3627	5951.410177192001	6
0	3630	5951.420904828129	7
0	3633	5951.579528528253	8
0	3635	5951.737692911325	7
0	3638	5954.280145940141	6
0	3640	5966.489174703409	5
0	3642	5971.438813489414	6
0	3645	5978.287427869978	5
0	3647	5991.344849256183	6
0	3650	5996.136444275485	7
0	3653	5997.229922473578	6
0	3655	6002.931386421522	5
0	3657	6004.524180323776	4
0	3659	6006.854597563106	5
0	3662	6013.665559221729	6
0	3665	6021.068508353785	7
0	3668	6022.026938020382	8
0	3670	6029.101002883424	7
0	3673	6030.404388467615	6
0	3675	6031.805780954959	5
0	3677	6037.363580494479	6
0	3680	6038.612825357312	5
0	3682	6039.51602878812	4
0	3684	6052.26801725585	5
0	3687	6053.83911016987	6
0	3690	6054.783203547283	5
0	3692	6056.41341410963	4
0	3694	6069.94310222037	5
0	3697	6070.282447850879	6
0	3700	6074.309054007367	7
0	3703	6077.605438599479	8
0	3705	6085.312488830123	7
0	3708	6086.90669037268	6
0	3710	6095.384170328052	5
0	3712	6095.845282955282	4
0	3714	6099.395214970463	5
0	3717	6103.228566666201	6
0	3720	6110.552199228705	5
0	3722	6114.165598068953	6
0	3725	6118.413087677274	5
0	3727	6119.877675018563	6
0	3730	6120.528099916096	7
0	3733	6126.401232185213	8
0	3735	6128.759207943296	9
0	3737	6133.03305736196	10
0	3739	6142.197813675821	11
0	3741	6143.293364765065	10
0	3744	6155.356074498348	11
0	3746	6158.739574580427	10
0	3749	6166.673968457129	9
0	3752	6171.219808162189	8
0	3755	6173.167424846823	7
0	3758	6173.430223919778	6
0	3760	6174.98115192786	5
0	3762	6182.676677721697	4
0	3764	6186.11146444134	5
0	3767	6188.954036523552	4
0	3769	6189.566669492024	3
0	3771	6203.454870065342	4
0	3774	6205.922925089318	5
0	3777	6209.076337972212	6
0	3780	6214.185278827607	5
0	3782	6229.958229870601	6
0	3785	6234.132351954509	5
0	3787	6236.010191094438	4
0	3789	6241.244219211801	5
0	3792	6245.659972762819	4
0	3794	6249.906071184097	3
0	3796	6252.522109479431	4
0	3799	6261.507080334285	3
0	3801	6265.35946011852	4
0	3804	6271.595241476151	5
0	3807	6299.368365506559	4
0	3809	6301.350571814676	3
0	3811	6303.294353229856	2
0	3813	6306.523961438847	3
0	3816	6313.263566717572	4
0	3819	6313.862765753112	5
0	3822	6318.235889253338	4
0	3824	6339.708426989797	3
0	3826	6342.475085558183	4
0	3829	6342.713652861519	3
0	3831	6350.759575688863	4
0	3834	6352.334318510196	5
0	3837	6354.68714748069	6
0	3840	6358.862892876157	7
0	3843	6362.161930608957	8
0	3845	6364.949245358271	7
0	3848	6366.769621033012	8
0	3850	6370.341343467974	7
0	3853	6370.485926780136	6
0	3855	6371.401239842362	5
0	3857	6374.477840706349	6
0	3860	6376.278103386195	5
0	3862	6379.543352795888	4
0	3864	6381.393825429251	5
0	3867	6389.406933328086	6
0	3870	6389.752528248977	7
0	3873	6390.577768586772	8
0	3875	6393.103846150676	9
0	3877	6402.154498410967	10
0	3879	6402.49197133686	11
0	3881	6403.082961670303	10
0	3884	6403.89038909716	11
0	3886	6408.130710810779	12
0	3888	6408.235749898065	11
0	3891	6408.625745202717	12
0	3893	6422.376765761237	13
0	3895	6423.685025874376	12
0	3898	6424.153278187699	11
0	3901	6427.231731733198	12
0	3903	6428.331288631887	11
0	3906	6437.995927711491	12
0	3908	6444.929008686921	11
0	3911	6445.776006038465	10
0	3914	6449.670125828149	9
0	3917	6450.890892102401	10
0	3919	6460.235594712489	11
0	3921	6460.646956228899	12
0	3923	6462.424987333107	11
0	3926	6471.904713199411	10
0	3929	6475.030663124861	9
0	3932	6476.237394668659	10
0	3934	6477.725524166481	9
0	3937	6480.874535257878	8
0	3940	6482.969094122284	7
0	3943	6484.336879502274	6
0	3945	6487.496849189702	7
0	3948	6494.037038878624	6
0	3950	6497.745651439735	7
0	3953	6500.332576879869	8
0	3955	6500.754745416326	7
0	3958	6501.409815902082	6
0	3960	6502.233753039563	5
0	3962	6504.029782210897	4
0	3964	6504.66672226356	3
0	3966	6509.362601826404	2
0	3968	6514.006709850997	3
0	3971	6514.2315455164	2
0	3973	6514.911419029274	3
0	3976	6517.899171517742	4
0	3979	6521.362872605366	5
0	3982	6527.955067880896	6
0	3985	6529.034198485451	5
0	3987	6529.837492853051	4
0	3989	6534.629439572722	3
0	3991	6535.995952942803	2
0	3993	6541.391831794586	1
0	3995	6554.125763740726	2
0	3998	6556.705786317187	1
0	4000	6558.429598444402	2
0	4003	6561.54644468019	3
0	4006	6565.991414564146	2
0	4008	6583.70012806433	1
0	4010	6608.356073635291	2
0	4013	6619.724053399697	3
0	4016	6619.740324052081	4
0	4019	6625.153171431213	5
0	4022	6625.574859582278	4
0	4024	6627.681493485696	3
0	4026	6629.019347560217	4
0	4029	6632.75010391404	3
0	4031	6637.242360722211	2
0	4033	6642.246599104682	3
0	4036	6643.520797117546	4
0	4039	6646.999028785546	3
0	4041	6647.484402238924	4
0	4044	6653.146047586673	5
0	4047	6653.277301211042	6
0	4050	6665.601950379716	7
0	4053	6679.61653282477	8
0	4055	6680.843480840209	9
0	4057	6688.325763942361	8
0	4060	6692.451284850963	7
0	4063	6693.327090989833	6
0	4065	6701.869599109328	5
0	4067	6703.211175036512	4
0	4069	6705.200019281769	5
0	4072	6712.458087099293	4
0	4074	6713.044062353161	3
0	4076	6715.430685229255	2
0	4078	6719.952064006736	3
0	4081	6732.635038305927	4
0	4084	6737.613005378897	3
0	4086	6742.717194855626	4
0	4089	6743.215997770964	3
0	4091	6751.612999535431	2
0	4093	6755.88323702536	1
0	4095	6759.229366035081	0
0	4097	6760.105954000165	1
0	4100	6774.413327876394	2
0	4103	6783.193075803007	1
0	4105	6784.553864284848	2
0	4108	6785.561176405692	3
0	4111	6786.377126831279	4
0	4114	6786.593639314694	5
0	4117	6787.744791274199	4
0	4119	6799.601050111965	5
0	4122	6800.669241965718	6
0	4125	6803.289830360792	7
0	4128	6805.932249356535	6
0	4130	6820.561390652913	7
0	4133	6820.62746155958	8
0	4135	6821.067138817395	7
0	4138	6826.499374524844	8
0	4140	6827.778503819139	7
0	4143	6832.4328296141	6
0	4145	6835.796251577697	5
0	4147	6837.531045966333	6
0	4150	6842.484607248185	5
0	4152	6844.062925209794	4
0	4154	6845.449404981365	3
0	4156	6849.495976864374	4
0	4159	6851.134397226732	5
0	4162	6853.141582066994	6
0	4165	6853.674351272786	5
0	4167	6855.659509849323	4
0	4169	6857.044129042973	5
0	4172	6861.019449383129	6
0	4175	6865.325676561783	7
0	4178	6866.25511633365	6
0	4180	6872.890594850676	7
0	4183	6879.854169094068	8
0	4185	6880.072398616144	9
0	4187	6880.248745198448	10
0	4189	6884.308731067723	11
0	4191	6885.291946340349	10
0	4194	6887.005649602093	9
0	4197	6889.464729853236	10
0	4199	6894.789395745821	9
0	4202	6898.888713915971	10
0	4204	6907.072417185556	11
0	4206	6908.347391501845	10
0	4209	6911.141154005209	9
0	4212	6911.376704088237	8
0	4215	6912.100825268854	9
0	4217	6916.831676866163	8
0	4220	6919.363930691416	7
0	4223	6919.899054695591	8
0	4225	6928.902421021368	7
0	4228	6929.465797359742	8
0	4230	6930.328187766518	9
0	4232	6931.202114879181	8
0	4235	6939.183185464571	7
0	4238	6944.156972925846	8
0	4240	6951.061847924934	9
0	4242	6951.325370225956	10
0	4244	6952.326656139619	9
0	4247	6962.907780871773	10
0	4249	6965.668264661845	11
0	4251	6965.688070873197	10
0	4254	6965.899921026756	9
0	4257	6966.074314656718	10
0	4259	6966.127774434332	11
0	4261	6967.658497861637	10
0	4264	6969.515289668589	11
0	4266	6972.146697668558	10
0	4269	6973.711746708054	9
0	4272	6981.158992880804	10
0	4274	6982.358422321928	9
0	4277	6987.818341596907	8
0	4280	6989.986338629794	9
0	4282	6990.188918185419	10
0	4284	6990.198761456314	9
0	4287	6991.952201632636	10
0	4289	6992.857993970531	11
0	4291	6995.96041896789	10
0	4294	6996.109358308613	9
0	4297	6997.86876019565	10
0	4299	6998.591144154983	11
0	4301	6998.794204008871	12
0	4303	7004.165337671923	13
0	4305	7005.839118416013	12
0	4308	7015.992213981322	11
0	4311	7022.76949752534	10
0	4314	7023.110595644706	9
0	4317	7026.831564033562	10
0	4319	7027.016232293992	11
0	4321	7033.434033197779	10
0	4324	7035.929117723433	11
0	4326	7037.024383480555	10
0	4329	7037.843747710001	11
0	4331	7040.095996260017	10
0	4334	7048.399837953568	9
0	4337	7051.806723848631	8
0	4340	7052.176878760455	7
0	4343	7057.711611895667	8
0	4345	7059.767597196433	9
0	4347	7061.844365774871	8
0	4350	7064.158509788047	9
0	4352	7066.462524113781	10
0	4354	7073.068434962692	9
0	4357	7075.995251340395	8
0	4360	7077.773743643863	9
0	4362	7080.924938618802	8
0	4365	7084.266496054864	7
0	4368	7088.775230431552	8
0	4370	7093.33303211875	7
0	4373	7095.570638416034	6
0	4375	7099.159866190225	5
0	4377	7102.95583466179	4
0	4379	7104.870141787818	5
0	4382	7106.600622948542	6
0	4385	7107.594006702255	5
0	4387	7117.511380607931	4
0	4389	7118.136403266236	5
0	4392	7122.15687464926	6
0	4395	7132.27210713868	7
0	4398	7132.601362327084	6
0	4400	7135.629760041338	5
0	4402	7147.905833961972	4
0	4404	7159.67599788617	5
0	4407	7179.909324036393	4
0	4409	7181.858648208012	3
0	4411	7199.272733311824	4
0	4414	7203.663534536776	5
0	4417	7204.424610022481	4
0	4419	7204.837543211652	3
0	4421	7207.250185706107	4
0	4424	7211.112176622839	3
0	4426	7212.378301468509	4
0	4429	7217.746435996914	5
0	4432	7220.522936884197	4
0	4434	7223.882948800656	5
0	4437	7232.96268595358	4
0	4439	7237.280687593368	5
0	4442	7237.432791904608	4
0	4444	7244.125618481603	5
0	4447	7245.767809139067	6
0	4450	7257.821639530123	7
0	4453	7260.901886336622	6
0	4455	7261.308559835444	5
0	4457	7261.516551629661	6
0	4460	7263.679268366867	5
0	4462	7268.918731545975	4
0	4464	7272.224080026797	5
0	4467	7273.399532610028	4
0	4469	7277.980077203416	3
0	4471	7291.270687075389	2
0	4473	7304.870186495181	3
0	4476	7312.503901389924	4
0	4479	7319.626683723528	3
0	4481	7330.629302239169	4
0	4484	7332.19789615376	3
0	4486	7340.310165396602	2
0	4488	7346.027818243889	3
0	4491	7349.541269076595	2
0	4493	7350.595604030962	3
0	4496	7356.951871065116	4
0	4499	7357.422124678414	3
0	4501	7359.304373236724	4
0	4504	7361.62483265553	3
0	4506	7361.932586113418	2
0	4508	7371.826612367323	3
0	4511	7377.821525885491	4
0	4514	7379.120399426767	5
0	4517	7384.127469730365	4
0	4519	7388.816458377986	3
0	4521	7392.117548320016	2
0	4523	7410.455761070868	3
0	4526	7412.293921163118	2
0	4528	7413.27963976039	1
0	4530	7416.168795995159	2
0	4533	7417.937084785688	3
0	4536	7418.078187093549	2
0	4538	7424.744253406348	3
0	4541	7424.830368456614	4
0	4544	7435.702496283219	5
0	4547	7440.092494382291	6
0	4550	7445.772302300516	5
0	4552	7446.074670710571	4
0	4554	7450.212163587287	3
0	4556	7458.432209174304	4
0	4559	7463.912358416666	3
0	4561	7465.69947460116	4
0	4564	7469.692853994907	5
0	4567	7474.485821107365	4
0	4569	7476.969840432166	3
0	4571	7485.74965902686	2
0	4573	7489.360952764973	1
0	4575	7499.999249990776	0
0	4577	7525.658007457614	1
0	4580	7528.210655891564	2
0	4583	7531.910756182523	3
0	4586	7537.831588069647	4
0	4589	7544.655605935875	3
0	4591	7545.971153279402	4
0	4594	7546.385298284057	3
0	4596	7551.135328240516	4
0	4599	7556.304083268633	3
0	4601	7563.503408814782	4
0	4604	7568.789485371189	5
0	4607	7575.583128975245	6
0	4610	7579.112016773492	7
0	4613	7584.567709439801	6
0	4615	7589.966576886778	7
0	4618	7591.782881451164	8
0	4620	7593.794799817553	9
0	4622	7595.518873812967	8
0	4625	7597.881825905711	9
0	4627	7601.212060439708	8
0	4630	7602.486602198558	9
0	4632	7603.418271690658	8
0	4635	7603.928410875249	9
0	4637	7607.975356451946	8
0	4640	7614.070992368793	7
0	4643	7635.991645838747	6
0	4645	7636.559100575566	7
0	4648	7637.776674578047	6
0	4650	7637.998158628232	5
0	4652	7644.015393005613	6
0	4655	7644.941653520618	5
0	4657	7647.084435976771	4
0	4659	7656.443404831162	3
0	4661	7659.474274887372	4
0	4664	7667.783094952399	5
0	4667	7669.361382695642	6
0	4670	7675.672354797526	7
0	4673	7676.20297239909	6
0	4675	7679.664005574718	7
0	4678	7680.639365402828	6
0	4680	7681.373988155634	5
0	4682	7681.964999667943	6
0	4685	7687.058616289339	5
0	4687	7688.421596098026	6
0	4690	7689.272328412827	5
0	4692	7704.831650167747	6
0	4695	7709.738284466387	7
0	4698	7713.039889547344	6
0	4700	7714.157428118926	5
0	4702	7726.468522326	6
0	4705	7732.119256609166	5
0	4707	7732.348972194575	6
0	4710	7732.611359008171	5
0	4712	7734.224281386618	4
0	4714	7738.957658485834	3
0	4716	7748.997504158186	4
0	4719	7750.128150145575	5
0	4722	7764.618818434934	6
0	4725	7769.701877115968	5
0	4727	7773.594063145786	6
0	4730	7780.274786829413	7
0	4733	7782.719275359517	8
0	4735	7782.953300589118	9
0	4737	7792.254268422048	8
0	4740	7798.268071613523	9
0	4742	7809.076552947818	8
0	4745	7815.915331580292	7
0	4748	7817.460056028325	6
0	4750	7817.541828499705	5
0	4752	7820.37055591741	4
0	4754	7826.096694730265	3
0	4756	7827.330259154802	2
0	4758	7849.96544615964	3
0	4761	7851.740183619118	4
0	4764	7855.090197934074	5
0	4767	7856.062311221247	4
0	4769	7856.63777597447	5
0	4772	7859.856374300529	4
0	4774	7865.213891841571	5
0	4777	7866.843218418839	4
0	4779	7867.656810850424	5
0	4782	7875.35794626875	6
0	4785	7880.919809180655	5
0	4787	7888.73728208506	6
0	4790	7895.351994214769	7
0	4793	7898.532412938692	8
0	4795	7903.650869855871	9
0	4797	7908.072584264227	8
0	4800	7908.300298000987	9
0	4802	7908.572518227458	8
0	4805	7909.517547888617	9
0	4807	7913.520027598713	8
0	4810	7916.504972813799	7
0	4813	7923.206400847396	6
0	4815	7923.816851098294	7
0	4818	7924.517081121379	8
0	4820	7926.880671883851	9
0	4822	7930.029753813903	8
0	4825	7931.914983450566	7
0	4828	7933.160488390993	8
0	4830	7935.582714893217	9
0	4832	7938.301284616732	8
0	4835	7944.879226784514	7
0	4838	7954.149323817453	6
0	4840	7955.706415110456	5
0	4842	7956.6019256256	6
0	4845	7959.745570754644	7
0	4848	7961.38645432112	6
0	4850	7986.946877545525	7
0	4853	7990.334742018337	8
0	4855	7990.957707354638	7
0	4858	8000.401258376173	6
0	4860	8001.886465721022	5
0	4862	8010.951864258187	4
0	4864	8016.964794137456	3
0	4866	8018.986625321746	4
0	4869	8027.098810251955	5
0	4872	8034.923828396401	6
0	4875	8037.982165459296	5
0	4877	8042.589501595798	6
0	4880	8045.019781446548	5
0	4882	8046.257269480211	6
0	4885	8054.36326472113	7
0	4888	8057.088059881517	6
0	4890	8067.401553879007	5
0	4892	8070.206496094237	4
0	4894	8071.998066800579	5
0	4897	8072.911147901918	6
0	4900	8073.630947486929	7
0	4903	8074.37029427147	8
0	4905	8076.539664710915	7
0	4908	8080.992195758977	6
0	4910	8082.162551693913	5
0	4912	8089.309469801905	4
0	4914	8089.732797736882	3
0	4916	8096.769840285909	4
0	4919	8101.535455432819	5
0	4922	8105.541810283893	4
0	4924	8108.35937277449	3
0	4926	8113.955583665644	2
0	4928	8130.417404916748	3
0	4931	8130.790993294119	4
0	4934	8138.745064613165	3
0	4936	8147.272952771772	4
0	4939	8149.348319898502	3
0	4941	8149.979908025019	4
0	4944	8153.149274388893	3
0	4946	8155.668420352424	4
0	4949	8162.347236226218	3
0	4951	8163.213449268553	2
0	4953	8179.95920037558	3
0	4956	8180.27842465503	4
0	4959	8184.165882375916	5
0	4962	8184.406645039714	4
0	4964	8192.507518059532	5
0	4967	8194.520040094683	6
0	4970	8195.696298172182	5
0	4972	8197.778677242349	4
0	4974	8202.231267897278	5
0	4977	8203.055263725716	4
0	4979	8203.93033634007	5
0	4982	8210.759984245894	4
0	4984	8213.391287531662	3
0	4986	8215.037359554253	2
0	4988	8222.273990095094	3
0	4991	8223.721115431509	4
0	4994	8227.54851345663	5
0	4997	8232.253397381776	6
0	5000	8233.639316238321	5
0	5002	8238.817788734918	6
0	5005	8243.127692448129	7
0	5008	8243.845621634299	6
0	5010	8247.775842387512	7
0	5013	8250.223576813503	6
0	5015	8252.464761086834	5
0	5017	8254.680631562107	4
0	5019	8255.257723103745	3
0	5021	8264.092017596952	4
0	5024	8265.296730405784	5
0	5027	8266.357831958696	4
0	5029	8279.157764344811	3
0	5031	8288.996987515973	2
0	5033	8292.613520452809	1
0	5035	8303.056060250952	2
0	5038	8304.586949258585	3
0	5041	8308.566195875951	4
0	5044	8311.420491932771	3
0	5046	8314.04729977553	4
0	5049	8318.945025437339	3
0	5051	8324.214426686475	4
0	5054	8325.943075881699	5
0	5057	8329.702668308655	6
0	5060	8332.46076205731	5
0	5062	8338.987918255377	6
0	5065	8341.953600872187	5
0	5067	8353.048241081196	4
0	5069	8359.292789068711	5
0	5072	8361.657502040894	4
0	5074	8364.872955204629	3
0	5076	8366.526126214243	4
0	5079	8373.197527007223	5
0	5082	8381.797204702719	4
0	5084	8392.123218790676	3
0	5086	8393.352082544396	4
0	5089	8396.386823003992	5
0	5092	8398.45784055125	4
0	5094	8401.275084900951	5
0	5097	8406.067002682372	6
0	5100	8406.285381854593	5
0	5102	8409.770819326799	6
0	5105	8413.369514602787	7
0	5108	8413.594233839329	8
0	5110	8427.407798256653	7
0	5113	8428.136918529836	6
0	5115	8429.053418178646	5
0	5117	8429.914632965596	6
0	5120	8433.469440997658	7
0	5123	8434.428836111041	6
0	5125	8438.060473413249	5
0	5127	8439.902032505202	6
0	5130	8448.24249379114	5
0	5132	8451.169563551123	4
0	5134	8456.865302994906	3
0	5136	8461.463060873296	4
0	5139	8471.493815476827	5
0	5142	8494.61626581737	4
0	5144	8499.467228160484	3
0	5146	8507.553097572971	2
0	5148	8514.058838125209	3
0	5151	8514.19217577362	2
0	5153	8515.793912164977	1
0	5155	8535.920021770901	2
0	5158	8538.628776352209	1
0	5160	8548.379112031633	2
0	5163	8549.761728233525	3
0	5166	8554.90163237773	2
0	5168	8556.275923429525	1
0	5170	8582.631281373179	2
0	5173	8583.621896237838	3
0	5176	8584.32464695378	2
0	5178	8588.550586450275	1
0	5180	8592.093069474457	2
0	5183	8593.53392230271	3
0	5186	8609.008077252557	2
0	5188	8613.095973218979	1
0	5190	8613.531979237858	2
0	5193	8616.061117755253	3
0	5196	8627.256171464364	4
0	5199	8634.804646233697	3
0	5201	8634.812076508088	4
0	5204	8645.727043539474	5
0	5207	8646.950696817228	6
0	5210	8649.441371910542	5
0	5212	8652.120910907667	4
0	5214	8655.160731941359	5
0	5217	8659.662217431818	4
0	5219	8660.057631964312	5
0	5222	8662.030896509075	6
0	5225	8662.910037651781	7
0	5228	8664.182558736412	8
0	5230	8664.952893271128	9
0	5232	8666.683041327993	10
0	5234	8673.414668315921	11
0	5236	8674.471664917754	10
0	5239	8675.782674838354	11
0	5241	8676.111829724469	12
0	5243	8677.621353539829	13
0	5245	8678.315370476138	12
0	5248	8679.780317409327	11
0	5251	8680.866066388066	12
0	5253	8682.732313336944	13
0	5255	8682.93281223546	12
0	5258	8683.117621657001	11
0	5261	8683.901156696209	10
0	5264	8684.379589576841	11
0	5266	8686.27150968309	10
0	5269	8687.911946739825	9
0	5272	8690.483992623564	8
0	5275	8690.727398118687	9
0	5277	8695.084104180508	10
0	5279	8697.787288406302	11
0	5281	8700.352063021511	12
0	5283	8706.622096656472	11
0	5286	8715.917017026067	10
0	5289	8715.937921786946	11
0	5291	8717.149742962165	10
0	5294	8730.814894404882	11
0	5296	8736.671634520611	10
0	5299	8737.381733499113	9
0	5302	8737.717725123236	10
0	5304	8742.031232714858	9
0	5307	8742.891616139504	8
0	5310	8746.454190193673	9
0	5312	8752.042380645674	10
0	5314	8758.398100563089	9
0	5317	8758.81987408072	10
0	5319	8763.383491010411	9
0	5322	8764.463543871455	8
0	5325	8771.356913210175	9
0	5327	8771.773306999095	8
0	5330	8772.232201305555	9
0	5332	8775.743150651503	10
0	5334	8779.011472062996	11
0	5336	8779.753880330117	10
0	5339	8780.252704986021	11
0	5341	8782.6304407524	12
0	5343	8789.096223098793	11
0	5346	8794.319744705615	10
0	5349	8798.669034338553	9
0	5352	8812.52594440686	10
0	5354	8818.870510664721	9
0	5357	8822.945700628858	8
0	5360	8827.595534264504	9
0	5362	8828.185998100508	8
0	5365	8828.268495964448	9
0	5367	8830.177243932728	10
0	5369	8830.91760864819	11
0	5371	8831.45473322195	10
0	5374	8844.15541002636	9
0	5377	8848.540813400671	8
0	5380	8854.075275061007	7
0	5383	8856.912311995873	6
0	5385	8858.20252069936	5
0	5387	8865.762182143656	6
0	5390	8866.250171791576	7
0	5393	8868.10297167208	6
0	5395	8872.944551131482	5
0	5397	8874.399058664677	6
0	5400	8880.830563698504	7
0	5403	8881.65177365183	8
0	5405	8885.688595998769	7
0	5408	8888.680861512522	6
0	5410	8890.48208093796	5
0	5412	8891.333632336171	4
0	5414	8917.500575295252	3
0	5416	8919.786754490838	2
0	5418	8925.605770279223	3
0	5421	8934.031319434811	4
0	5424	8936.894734916303	3
0	5426	8944.431492421723	4
0	5429	8944.476430018771	5
0	5432	8945.029699870562	4
0	5434	8953.30657331948	5
0	5437	8962.006218144806	6
0	5440	8962.090095481466	7
0	5443	8964.135244719508	8
0	5445	8965.922826759184	9
0	5447	8968.569911577387	10
0	5449	8972.308247358205	9
0	5452	8973.476161392267	8
0	5455	8979.080876376659	9
0	5457	8982.462200271483	8
0	5460	8984.440769766386	9
0	5462	8984.761661219911	8
0	5465	8987.31289835586	7
0	5468	8988.81766643179	8
0	5470	8989.82417923744	9
0	5472	8996.542913704261	8
0	5475	8999.356403366231	7
0	5478	9003.164373517609	6
0	5480	9006.486863552947	7
0	5483	9006.86807664258	8
0	5485	9010.653498777165	7
0	5488	9017.937762680652	6
0	5490	9019.58033287259	7
0	5493	9036.400039139138	8
0	5495	9037.609388263032	7
0	5498	9054.526949563262	8
0	5500	9055.172153647078	7
0	5503	9065.942104841176	6
0	5505	9070.24502782647	7
0	5508	9070.840664617794	8
0	5510	9072.455362006774	9
0	5512	9073.246872466403	8
0	5515	9076.096753996192	7
0	5518	9084.268945863485	8
0	5520	9087.68052113145	9
0	5522	9094.575183053759	8
0	5525	9096.601525633965	9
0	5527	9098.231254598711	8
0	5530	9110.209963573807	7
0	5533	9112.174339319875	8
0	5535	9112.958840239229	9
0	5537	9115.196818314601	8
0	5540	9115.5931201392	7
0	5543	9117.626890901903	6
0	5545	9121.56001167735	7
0	5548	9121.921882763547	8
0	5550	9122.339742494497	7
0	5553	9124.691303889527	8
0	5555	9132.275851049957	7
0	5558	9136.221819004743	8
0	5560	9140.227379190478	7
0	5563	9142.633022731711	6
0	5565	9144.826527593448	7
0	5568	9158.623334653369	8
0	5570	9158.960657525541	7
0	5573	9160.075324649907	8
0	5575	9162.632329978842	7
0	5578	9164.044478055026	8
0	5580	9165.173003455485	9
0	5582	9169.538814689341	10
0	5584	9176.18753761396	9
0	5587	9183.967052008048	10
0	5589	9188.846674373599	11
0	5591	9193.129366480164	12
0	5593	9193.773233572632	11
0	5596	9194.226940754939	12
0	5598	9204.382028174824	13
0	5600	9208.985438071404	14
0	5602	9211.475387514726	13
0	5605	9217.849178304977	12
0	5608	9218.198046669052	11
0	5611	9218.698746377168	12
0	5613	9222.556159914447	11
0	5616	9223.493852624481	12
0	5618	9223.843906980864	13
0	5620	9225.515104842132	14
0	5622	9226.59624250953	13
0	5625	9229.647401385459	12
0	5628	9239.840878457874	13
0	5630	9240.403478353251	14
0	5632	9240.718925397712	15
0	5634	9241.592343465378	14
0	5637	9243.571363925157	15
0	5639	9243.918313415397	16
0	5641	9248.374932305602	17
0	5643	9248.487044995203	16
0	5646	9248.933936404168	17
0	5648	9249.22076702078	18
0	5650	9251.390313592953	17
0	5653	9254.778851834637	18
0	5655	9257.580056837484	19
0	5657	9262.06805792216	18
0	5660	9262.219262249655	19
0	5662	9266.519000359726	18
0	5665	9269.400449969245	17
0	5668	9278.545570412865	16
0	5671	9287.383063675195	17
0	5673	9291.539964781691	16
0	5676	9295.764502017086	15
0	5679	9303.253295864663	16
0	5681	9304.332517350306	15
0	5684	9305.654216040638	14
0	5687	9312.085457604881	15
0	5689	9316.344394860859	14
0	5692	9318.587141038214	13
0	5695	9319.225690568161	12
0	5698	9319.419226072567	13
0	5700	9337.881614982117	12
0	5703	9340.570387220084	11
0	5706	9346.355398469176	10
0	5709	9359.769243533733	9
0	5712	9362.202073319753	8
0	5715	9367.209348226264	7
0	5718	9368.323806127189	8
0	5720	9369.013132680036	9
0	5722	9372.449791271735	8
0	5725	9372.775629871705	7
0	5728	9373.210270741965	8
0	5730	9378.421398314522	7
0	5733	9386.49001930478	6
0	5735	9388.653915569298	7
0	5738	9388.668581698768	6
0	5740	9389.119572025391	5
0	5742	9394.704050364549	4
0	5744	9395.632995833444	5
0	5747	9407.135356609237	4
0	5749	9412.44036973964	5
0	5752	9419.827507487046	4
0	5754	9428.709028212155	5
0	5757	9430.090544337525	4
0	5759	9431.815339309392	3
0	5761	9435.870736622007	4
0	5764	9438.802603827922	5
0	5767	9441.88849001462	4
0	5769	9447.565153646113	5
0	5772	9448.914035004441	4
0	5774	9450.685522919849	3
0	5776	9458.899667160105	4
0	5779	9478.508786001347	3
0	5781	9479.057457409036	2
0	5783	9484.196625410669	3
0	5786	9485.614523709466	4
0	5789	9489.165600394594	3
0	5791	9500.090409745101	4
0	5794	9506.671911022113	5
0	5797	9515.570570637105	4
0	5799	9520.318128187409	5
0	5802	9521.166436977192	4
0	5804	9525.909822608273	5
0	5807	9526.916549550097	6
0	5810	9539.696160509128	5
0	5812	9543.630046191395	4
0	5814	9562.175066205626	5
0	5817	9567.35132762651	6
0	5820	9569.19927758233	5
0	5822	9571.703703717265	4
0	5824	9576.084088219124	3
0	5826	9585.985862320272	4
0	5829	9595.258090714034	3
0	5831	9597.435594070932	4
0	5834	9600.225076471492	5
0	5837	9604.510630289806	6
0	5840	9605.331238666591	5
0	5842	9607.223357856828	4
0	5844	9608.289454825447	5
0	5847	9612.0608086413	4
0	5849	9615.277907658512	5
0	5852	9618.301472576624	6
0	5855	9621.450195086135	5
0	5857	9624.558755262504	6
0	5860	9624.899128101594	5
0	5862	9626.680032154803	4
0	5864	9631.615677913601	5
0	5867	9637.147102131677	4
0	5869	9637.414011492099	3
0	5871	9649.211027707162	2
0	5873	9654.759459333668	3
0	5876	9662.154799646001	2
0	5878	9669.940071183337	3
0	5881	9671.941078419045	2
0	5883	9673.344457163703	3
0	5886	9676.680281809905	4
0	5889	9677.663289687744	3
0	5891	9711.029343700273	4
0	5894	9712.567780887618	3
0	5896	9713.960272936371	4
0	5899	9714.375326090214	3
0	5901	9715.139267260258	4
0	5904	9717.651677409324	5
0	5907	9718.523830237834	4
0	5909	9730.056165164458	5
0	5912	9732.254927888441	4
0	5914	9735.256659040645	3
0	5916	9735.863153380421	2
0	5918	9739.238669127041	3
0	5921	9740.395648396724	2
0	5923	9745.581609057974	3
0	5926	9750.106100022999	4
0	5929	9754.385089879851	3
0	5931	9759.512632700004	4
0	5934	9761.997057177449	3
0	5936	9763.900006918648	2
0	5938	9764.008581309135	1
0	5940	9765.594897798276	2
0	5943	9767.998646735582	3
0	5946	9768.605542235435	2
0	5948	9769.692036571448	3
0	5951	9770.544673203214	2
0	5953	9773.413336322423	1
0	5955	9794.663314337507	2
0	5958	9795.287657294112	3
0	5961	9801.336096317422	2
0	5963	9804.139383005765	3
0	5966	9808.836676024903	4
0	5969	9823.767777697767	5
0	5972	9824.340303353133	6
0	5975	9824.590164262784	7
0	5978	9825.881198234103	6
0	5980	9828.858889611026	7
0	5983	9832.604300487087	8
0	5985	9835.17728703387	7
0	5988	9837.656679306248	8
0	5990	9839.95652139621	9
0	5992	9840.843017951044	8
0	5995	9840.961722722521	9
0	5997	9846.452916778262	10
0	5999	9855.837002312148	11
0	6001	9856.033375765564	10
0	6004	9856.793441464133	11
0	6006	9863.986803496012	10
0	6009	9864.514518205274	9
0	6012	9870.105342587049	10
0	6014	9875.881428767139	9
0	6017	9876.499966347716	10
0	6019	9881.36265977304	11
0	6021	9883.894138825553	10
0	6024	9887.944061021115	11
0	6026	9888.095037020707	10
0	6029	9888.101505164704	9
0	6032	9905.874771063282	8
0	6035	9906.862023722507	7
0	6038	9914.249210207907	6
0	6040	9921.667988446773	5
0	6042	9922.99856902114	6
0	6045	9927.791228646971	5
0	6047	9936.573986061604	6
0	6050	9937.22186020156	7
0	6053	9938.229766578303	6
0	6055	9940.28542933688	5
0	6057	9940.375885613429	6
0	6060	9940.414366686129	7
0	6063	9953.316438626798	8
0	6065	9955.790734515369	7
0	6068	9960.305520618312	6
0	6070	9963.361766339569	5
0	6072	9969.120677643895	6
0	6075	9971.738655677916	5
0	6077	9975.587028353305	4
0	6079	9976.951449268411	5
0	6082	9986.511179139218	4
0	6084	9995.082916805167	5
0	6087	9995.376547309883	4
0	6089	9996.387411064487	3
0	6091	9996.490063964687	2
0	6093	9997.072263216733	3
0	6096	10005.099998140628	2
0	6098	10010.892132422672	1
0	6100	10013.553467426371	2
0	6103	10014.381397862792	3
0	6106	10014.70089350401	4
0	6109	10018.656950742749	5
0	6112	10022.675845438303	6
0	6115	10026.575337066191	7
0	6118	10026.998337434069	6
0	6120	10038.404573970365	5
0	6122	10045.434492154896	4
0	6124	10047.583690918886	3
0	6126	10048.210222538147	4
0	6129	10052.700144479727	5
0	6132	10055.350130760231	6
0	6135	10062.93378163371	7
0	6138	10063.776354948312	8
0	6140	10064.990880381328	9
0	6142	10072.554988909873	10
0	6144	10074.349741506328	9
0	6147	10075.558575759126	8
0	6150	10079.250454724288	7
0	6153	10081.398888027157	8
0	6155	10089.282807401946	9
0	6157	10091.838078219543	10
0	6159	10091.849565542019	9
0	6162	10095.460667832268	10
0	6164	10107.62166419971	9
0	6167	10108.464518843766	8
0	6170	10109.616241727749	7
0	6173	10112.49429636159	6
0	6175	10112.947573809768	7
0	6178	10116.809489117169	6
0	6180	10120.912166462879	5
0	6182	10122.079047652145	4
0	6184	10124.265968966358	3
0	6186	10128.185209297311	4
0	6189	10130.507519571514	5
0	6192	10131.381098550599	6
0	6195	10133.407905638409	7
0	6198	10135.386388030377	6
0	6200	10141.775572985994	5
0	6202	10142.868565239086	6
0	6205	10143.507336698831	5
0	6207	10146.043514783036	6
0	6210	10149.59797590498	7
0	6213	10155.913642769633	6
0	6215	10161.9626309386	7
0	6218	10165.790633847081	6
0	6220	10169.377935914941	5
0	6222	10170.268032761202	6
0	6225	10182.172378431442	7
0	6228	10185.815273653242	8
0	6230	10186.701348951258	7
0	6233	10188.696012900573	6
0	6235	10188.923409025684	7
0	6238	10193.658150471049	6
0	6240	10198.185155962717	5
0	6242	10198.497767251559	4
0	6244	10223.182075716995	5
0	6247	10234.354225842898	6
0	6250	10234.885972864546	5
0	6252	10235.613753137912	4
0	6254	10239.90619718336	3
0	6256	10240.339090743236	4
0	6259	10246.793631886375	3
0	6261	10250.616281187157	2
0	6263	10251.879113322975	3
0	6266	10255.161488949833	2
0	6268	10257.793990229633	3
0	6271	10266.440617862917	2
0	6273	10272.587576546343	3
0	6276	10274.17690560196	4
0	6279	10274.565359250156	5
0	6282	10281.945434235071	4
0	6284	10284.391281741995	5
0	6287	10289.412118152974	6
0	6290	10290.251705730821	7
0	6293	10290.679439749237	6
0	6295	10292.730186515425	5
0	6297	10297.312811325766	4
0	6299	10309.094850217561	5
0	6302	10310.294302499041	4
0	6304	10312.655407384649	5
0	6307	10315.415013987368	4
0	6309	10318.523534994581	5
0	6312	10319.53413462007	4
0	6314	10322.771555837507	3
0	6316	10326.706100370847	4
0	6319	10327.60905335546	3
0	6321	10327.776587905426	4
0	6324	10328.008809398501	3
0	6326	10343.987284478848	4
0	6329	10345.197588858489	3
0	6331	10349.131217084449	4
0	6334	10349.214092118223	3
0	6336	10351.398806589118	4
0	6339	10352.455186774256	5
0	6342	10359.523054543331	6
0	6345	10359.880293792098	7
0	6348	10374.374863561641	6
0	6350	10376.343102207568	5
0	6352	10392.30451052218	6
0	6355	10392.528181743962	5
0	6357	10392.548153368052	6
0	6360	10396.877035457722	5
0	6362	10400.065357063973	6
0	6365	10409.524436297136	5
0	6367	10411.205948066409	4
0	6369	10412.323190416189	5
0	6372	10414.096546737658	6
0	6375	10421.445180343678	7
0	6378	10422.537136182816	8
0	6380	10427.231563731889	7
0	6383	10430.890434815875	6
0	6385	10433.052390331948	5
0	6387	10433.832229231896	6
0	6390	10438.303418475946	7
0	6393	10441.004067690239	8
0	6395	10443.636468245263	9
0	6397	10468.111789308258	8
0	6400	10478.533056845904	7
0	6403	10483.716128312764	8
0	6405	10483.806807049871	9
0	6407	10487.746972759777	10
0	6409	10491.199437527077	9
0	6412	10493.012853507359	8
0	6415	10501.984922404614	9
0	6417	10508.515722058822	8
0	6420	10515.397710117005	9
0	6422	10524.955638024853	10
0	6424	10528.040247230368	11
0	6426	10528.217126566752	12
0	6428	10533.805902683071	11
0	6431	10536.070514218125	12
0	6433	10539.70137105982	11
0	6436	10553.156325748999	10
0	6439	10557.338778990811	9
0	6442	10558.757754680623	8
0	6445	10560.111563008975	9
0	6447	10561.005045712959	10
0	6449	10561.429284465788	9
0	6452	10561.582388764648	8
0	6455	10567.195745408759	7
0	6458	10569.616521711601	6
0	6460	10576.311721378808	5
0	6462	10582.642808049101	6
0	6465	10583.679300169263	5
0	6467	10584.702197063903	4
0	6469	10584.717721063028	3
0	6471	10593.362634162004	4
0	6474	10594.273767592669	5
0	6477	10607.398506062107	6
0	6480	10611.178594614395	5
0	6482	10611.655876159903	6
0	6485	10612.955935206151	7
0	6488	10613.102150052464	6
0	6490	10614.810060172966	5
0	6492	10616.54061222553	4
0	6494	10617.142935408482	5
0	6497	10618.669042652789	6
0	6500	10621.196698403835	5
0	6502	10631.120566314187	6
0	6505	10631.271706640372	5
0	6507	10635.021143715373	4
0	6509	10641.708462078534	5
0	6512	10641.814695675071	4
0	6514	10647.405771594617	5
0	6517	10648.597405788108	4
0	6519	10649.632871639304	3
0	6521	10651.778081861043	4
0	6524	10653.281581284218	3
0	6526	10657.314450198711	4
0	6529	10666.966639738385	3
0	6531	10671.160781672158	4
0	6534	10680.005592715961	3
0	6536	10691.520402065891	2
0	6538	10692.72570194495	3
0	6541	10694.464402749538	2
0	6543	10695.992261161861	1
0	6545	10701.703157476087	2
0	6548	10704.764103513849	3
0	6551	10706.993748816789	4
0	6554	10707.801003191597	3
0	6556	10709.741586917945	2
0	6558	10713.344366316717	3
0	6561	10713.991522968008	2
0	6563	10714.454485566275	1
0	6565	10715.506669293734	2
0	6568	10731.822622891793	3
0	6571	10732.752709564328	4
0	6574	10734.652407746141	3
0	6576	10736.185220693384	4
0	6579	10739.591871585057	5
0	6582	10749.848960444658	4
0	6584	10750.517493451359	5
0	6587	10751.841964252736	6
0	6590	10753.566922831811	5
0	6592	10755.375022626795	4
0	6594	10766.599354057662	3
0	6596	10767.137276000998	4
0	6599	10770.418879998463	3
0	6601	10776.663066255547	4
0	6604	10778.421386165046	5
0	6607	10780.27947454383	6
0	6610	10790.036671496167	7
0	6613	10795.365995057117	8
0	6615	10800.307915679573	7
0	6618	10808.631932213619	8
0	6620	10812.67801698849	9
0	6622	10818.601704529669	8
0	6625	10820.478105463021	7
0	6628	10821.474297174037	6
0	6630	10829.717341315823	5
0	6632	10834.040698562264	6
0	6635	10835.935779211001	7
0	6638	10838.962172297834	6
0	6640	10841.745077960889	5
0	6642	10847.624870893029	4
0	6644	10851.395994007356	5
0	6647	10853.702301414224	4
0	6649	10854.980138442564	5
0	6652	10857.917950994652	4
0	6654	10859.911362620132	5
0	6657	10861.625479695639	4
0	6659	10862.377983021304	5
0	6662	10865.363801928299	4
0	6664	10869.923854704564	5
0	6667	10870.53194268189	6
0	6670	10871.5781781292	7
0	6673	10873.043823469799	8
0	6675	10879.710501427053	7
0	6678	10881.415278008785	8
0	6680	10884.888175587543	9
0	6682	10888.414619721381	8
0	6685	10890.275972976546	7
0	6688	10902.642238260115	8
0	6690	10904.815697149583	7
0	6693	10907.616740640739	6
0	6695	10908.255032297907	5
0	6697	10908.801705966636	6
0	6700	10908.802984818433	5
0	6702	10909.296487214247	6
0	6705	10909.387232445687	5
0	6707	10912.113052770305	6
0	6710	10915.286872304035	7
0	6713	10916.3235796435	6
0	6715	10926.477354942403	5
0	6717	10930.704869343205	4
0	6719	10931.42186132673	3
0	6721	10932.771558627575	4
0	6724	10937.153613907679	5
0	6727	10937.771130915763	6
0	6730	10944.456515201081	7
0	6733	10950.370161361783	6
0	6735	10956.364038359556	7
0	6738	10962.041709656983	6
0	6740	10962.171275601083	5
0	6742	10965.973009078625	6
0	6745	10967.419350723305	7
0	6748	10968.856243134863	8
0	6750	10969.585301294006	7
0	6753	10970.393161598937	6
0	6755	10970.62811483464	7
0	6758	10970.870454281725	6
0	6760	10976.025009461711	5
0	6762	10982.647642797342	4
0	6764	10984.94319632309	5
0	6767	10990.884422780799	4
0	6769	10992.153265129224	3
0	6771	11004.704910956862	4
0	6774	11009.265494015052	5
0	6777	11014.25193141831	6
0	6780	11014.461037392221	5
0	6782	11023.881592226267	4
0	6784	11027.479356180177	3
0	6786	11041.070499549463	4
0	6789	11057.707123720782	5
0	6792	11059.286915978053	4
0	6794	11064.303205969312	3
0	6796	11078.865668768739	4
0	6799	11082.200466836855	5
0	6802	11082.735124420286	4
0	6804	11084.268343750423	3
0	6806	11086.474343093149	4
0	6809	11090.678400146532	3
0	6811	11093.161384485953	4
0	6814	11093.991603538078	3
0	6816	11098.161631795397	4
0	6819	11105.443983304854	3
0	6821	11105.720999736809	4
0	6824	11121.053311806514	5
0	6827	11122.379030729229	4
0	6829	11123.15073996746	5
0	6832	11126.784051137472	6
0	6835	11127.891437598493	5
0	6837	11137.944762209838	6
0	6840	11139.565406634442	5
0	6842	11149.262774405845	4
0	6844	11149.438829845765	5
0	6847	11162.526101810875	6
0	6850	11168.731678673	5
0	6852	11169.351311768046	4
0	6854	11189.72168619927	5
0	6857	11191.357397355061	4
0	6859	11191.596364364584	5
0	6862	11192.308611101232	4
0	6864	11193.216378349706	5
0	6867	11195.192080952287	4
0	6869	11202.014671325878	5
0	6872	11206.485794606774	6
0	6875	11207.610811471978	5
0	6877	11209.650738733801	6
0	6880	11215.424582172314	5
0	6882	11217.295911817875	4
0	6884	11221.160243993833	5
0	6887	11230.221672970896	4
0	6889	11230.80429273918	5
0	6892	11232.378980111318	6
0	6895	11242.112968068337	5
0	6897	11243.486172871894	4
0	6899	11248.832120366575	5
0	6902	11254.910317025863	4
0	6904	11259.664817908301	5
0	6907	11260.874205431414	4
0	6909	11261.068868088815	5
0	6912	11261.40060130531	6
0	6915	11262.45247916186	7
0	6918	11263.885429522698	6
0	6920	11265.229053446913	5
0	6922	11268.112688414267	4
0	6924	11271.841258424304	5
0	6927	11277.513165822232	4
0	6929	11286.773920888888	3
0	6931	11295.248602102309	4
0	6934	11305.918236354004	3
0	6936	11309.363806637617	2
0	6938	11312.262976401466	3
0	6941	11322.433547212914	4
0	6944	11322.571905708837	5
0	6947	11326.358780385854	6
0	6950	11327.119805204147	5
0	6952	11329.742365030765	4
0	6954	11331.620304338327	3
0	6956	11350.062326296286	2
0	6958	11350.507357946951	3
0	6961	11354.524913475097	4
0	6964	11358.460217833978	5
0	6967	11361.308194794421	6
0	6970	11365.256669249069	7
0	6973	11366.012317244821	6
0	6975	11369.722866641358	7
0	6978	11376.051674286987	6
0	6980	11382.78012731593	5
0	6982	11384.966002982223	6
0	6985	11388.332852444171	7
0	6988	11388.600667816403	8
0	6990	11393.388976060037	7
0	6993	11400.347892546479	6
0	6995	11407.227047872654	7
0	6998	11408.27470541774	8
0	7000	11415.566875007324	7
0	7003	11417.154579566535	6
0	7005	11419.245607887098	5
0	7007	11420.690788414595	4
0	7009	11423.865667895991	3
0	7011	11435.045859725014	4
0	7014	11446.129853925913	3
0	7016	11455.1420951146	4
0	7019	11461.043677457804	5
0	7022	11466.268362968855	6
0	7025	11471.136599592931	5
0	7027	11473.395134404982	6
0	7030	11476.320107515728	7
0	7033	11480.99220506424	6
0	7035	11487.28827866753	7
0	7038	11495.342925829573	6
0	7040	11509.686011977596	5
0	7042	11511.60196940812	6
0	7045	11517.820135293191	7
0	7048	11522.134673525924	6
0	7050	11523.510211663637	5
0	7052	11524.61059805764	6
0	7055	11525.077368549241	5
0	7057	11527.75249570885	6
0	7060	11529.885359832906	5
0	7062	11529.992878505984	6
0	7065	11539.598881638648	7
0	7068	11543.91074998206	8
0	7070	11550.330638632245	9
0	7072	11551.726341323959	10
0	7074	11554.079681061385	9
0	7077	11555.031963159457	10
0	7079	11557.746713767544	9
0	7082	11558.209788748914	8
0	7085	11567.422710574795	9
0	7087	11568.407528140833	10
0	7089	11570.413665931752	9
0	7092	11573.459822689565	8
0	7095	11573.915280654152	7
0	7098	11575.026802361487	6
0	7100	11577.449348842448	5
0	7102	11578.702877800608	4
0	7104	11580.532334825653	3
0	7106	11591.779366979135	4
0	7109	11597.915228441404	3
0	7111	11598.087736076083	2
0	7113	11602.659990364128	3
0	7116	11616.827256598826	4
0	7119	11619.550660525868	3
0	7121	11628.92794408099	4
0	7124	11629.981777332953	5
0	7127	11633.542004422257	4
0	7129	11636.872543173637	5
0	7132	11640.29726509493	6
0	7135	11644.347971723254	7
0	7138	11648.02076482728	8
0	7140	11651.01152032864	9
0	7142	11657.943441309084	8
0	7145	11658.511305523995	9
0	7147	11661.351984819401	8
0	7150	11662.228316477841	7
0	7153	11663.610569192695	8
0	7155	11666.71698051613	9
0	7157	11671.74435247102	8
0	7160	11679.286000757497	7
0	7163	11683.656253546278	6
0	7165	11689.887645311192	5
0	7167	11697.399846306113	4
0	7169	11698.272382856595	3
0	7171	11712.104853230921	2
0	7173	11719.321830616814	3
0	7176	11740.312367431041	4
0	7179	11741.200353953706	3
0	7181	11747.540883515202	4
0	7184	11748.024522152762	3
0	7186	11748.026729220265	2
0	7188	11748.179165958202	3
0	7191	11749.996349907044	4
0	7194	11754.91472248033	5
0	7197	11755.042165046159	4
0	7199	11755.043810150561	3
0	7201	11764.259793563113	2
0	7203	11772.498986430374	3
0	7206	11775.07534266716	2
0	7208	11780.446444330472	3
0	7211	11781.702149481429	4
0	7214	11786.255654180996	3
0	7216	11786.452015640634	2
0	7218	11802.937486070164	3
0	7221	11806.674698479268	4
0	7224	11813.90228478689	5
0	7227	11824.899595831247	4
0	7229	11826.843611703498	3
0	7231	11828.458973541527	4
0	7234	11834.856980125435	5
0	7237	11835.41048798424	4
0	7239	11841.270466858456	5
0	7242	11844.596731099779	6
0	7245	11846.524169871904	7
0	7248	11849.930183049115	6
0	7250	11851.304230228337	7
0	7253	11857.149399561992	8
0	7255	11864.232799288813	9
0	7257	11868.864739575911	8
0	7260	11870.833310249028	7
0	7263	11872.357570207471	6
0	7265	11874.58563227877	7
0	7268	11875.674581363467	6
0	7270	11876.359925787483	7
0	7273	11878.810397142632	6
0	7275	11880.949293357664	7
0	7278	11886.298433236187	8
0	7280	11887.055759058775	7
0	7283	11887.378136221468	6
0	7285	11889.892741115977	7
0	7288	11894.178858121116	6
0	7290	11894.3705138817	5
0	7292	11894.506779306414	6
0	7295	11906.386960603368	5
0	7297	11908.23509132548	4
0	7299	11910.55920269211	5
0	7302	11920.041447029582	4
0	7304	11932.129642542246	3
0	7306	11936.898874516662	2
0	7308	11945.216000659759	3
0	7311	11959.338248208969	4
0	7314	11964.088950589224	3
0	7316	11965.887504702594	2
0	7318	11971.97966230299	3
0	7321	11973.626468618748	2
0	7323	11982.16334310512	3
0	7326	11993.274920225348	2
0	7328	12013.507469616259	3
0	7331	12014.245978740925	2
0	7333	12018.790165338322	1
0	7335	12019.588027355934	2
0	7338	12029.940205484535	1
0	7340	12039.013934931067	2
0	7343	12040.709593123847	3
0	7346	12041.560716750756	4
0	7349	12041.949748889815	5
0	7352	12049.349420343751	4
0	7354	12056.156069829812	5
0	7357	12058.944391013601	6
0	7360	12060.673728783996	7
0	7363	12065.680502029243	6
0	7365	12068.714493016926	5
0	7367	12079.415738085452	6
0	7370	12080.411356661783	5
0	7372	12095.435379200861	4
0	7374	12097.417475117803	3
0	7376	12106.626036647595	4
0	7379	12116.396371630051	3
0	7381	12120.589217838747	2
0	7383	12125.933117605291	1
0	7385	12141.746998682306	2
0	7388	12143.211999381482	1
0	7390	12147.424661762441	0
0	7392	12148.716033826236	1
0	7395	12152.361237487395	2
0	7398	12164.264245729535	3
0	7401	12174.681360374392	4
0	7404	12175.39122902415	5
0	7407	12180.586237967681	6
0	7410	12183.026163793406	7
0	7413	12187.139790974253	8
0	7415	12187.536303297881	7
0	7418	12189.973347002384	8
0	7420	12196.95490859195	7
0	7423	12208.254076344016	6
0	7425	12216.412790785678	7
0	7428	12222.833400164304	8
0	7430	12224.135183809011	9
0	7432	12230.209111903205	10
0	7434	12231.982045101272	11
0	7436	12234.80400705159	12
0	7438	12237.397113808166	11
0	7441	12241.474528552851	12
0	7443	12243.138103973761	11
0	7446	12250.035043621713	10
0	7449	12259.437946191972	9
0	7452	12260.310876057053	8
0	7455	12261.904702816662	9
0	7457	12262.166706828063	8
0	7460	12263.208267460798	7
0	7463	12264.244916342092	8
0	7465	12267.44212798337	9
0	7467	12267.835847248219	10
0	7469	12273.323860461574	11
0	7471	12279.028579055103	10
0	7474	12284.468661418531	9
0	7477	12287.346256810957	8
0	7480	12288.283662481534	9
0	7482	12288.987146818717	8
0	7485	12302.069527201266	9
0	7487	12304.660190365177	10
0	7489	12308.55317855327	9
0	7492	12309.268861578443	8
0	7495	12321.891522776932	7
0	7498	12322.388083698012	6
0	7500	12322.682394847363	5
0	7502	12323.457852248591	6
0	7505	12326.190758980944	7
0	7508	12329.191905672654	6
0	7510	12335.792311740637	5
0	7512	12338.807344647869	6
0	7515	12339.515984554991	7
0	7518	12342.400330693317	6
0	7520	12351.811349583911	7
0	7523	12351.860952329093	8
0	7525	12360.672747867502	9
0	7527	12361.863996402257	8
0	7530	12362.50353792475	9
0	7532	12365.829408250748	10
0	7534	12369.161716325425	11
0	7536	12371.682773351389	12
0	7538	12375.739175524187	11
0	7541	12378.745430266299	12
0	7543	12379.1109031174	11
0	7546	12386.201705163248	10
0	7549	12396.358952397071	11
0	7551	12399.739147028647	10
0	7554	12401.269753714323	9
0	7557	12403.531725820111	8
0	7560	12415.287736473923	7
0	7563	12422.112916624094	8
0	7565	12422.794851511548	7
0	7568	12425.26998481533	6
0	7570	12427.093546594543	7
0	7573	12427.524704569107	6
0	7575	12431.143557032476	7
0	7578	12442.546230262009	6
0	7580	12446.530114415841	7
0	7583	12448.701809208023	6
0	7585	12449.550361153209	7
0	7588	12455.057741829919	6
0	7590	12456.565375278407	7
0	7593	12461.921080111422	8
0	7595	12464.291691650694	7
0	7598	12468.835340051616	6
0	7600	12469.837127399943	5
0	7602	12470.568148502246	6
0	7605	12471.083113984762	7
0	7608	12471.144285599937	6
0	7610	12473.420417235696	5
0	7612	12473.548795865536	4
0	7614	12474.749971288801	3
0	7616	12479.275675033791	2
0	7618	12479.686617509435	3
0	7621	12480.672713803099	2
0	7623	12487.990956059771	3
0	7626	12490.991043988659	2
0	7628	12496.311391752667	3
0	7631	12497.886388316236	4
0	7634	12504.339352038382	5
0	7637	12504.458119105035	6
0	7640	12504.505558905179	5
0	7642	12511.437836957926	4
0	7644	12520.668043896713	3
0	7646	12523.418730564032	4
0	7649	12526.455273861145	5
0	7652	12526.993194339527	4
0	7654	12531.705571617344	3
0	7656	12541.975470510658	2
0	7658	12550.925856652137	1
0	7660	12553.377486247662	2
0	7663	12562.326167785219	3
0	7666	12576.435174262122	4
0	7669	12592.779447951148	3
0	7671	12593.113081408279	2
0	7673	12594.771404494391	3
0	7676	12596.386626846049	2
0	7678	12597.658917554847	1
0	7680	12600.330241701704	2
0	7683	12603.013210284313	3
0	7686	12616.339918814241	2
0	7688	12626.93593133754	3
0	7691	12629.9078945252	4
0	7694	12631.451310094454	3
0	7696	12638.115553440452	4
0	7699	12643.004886535567	5
0	7702	12647.668070846629	6
0	7705	12649.652361220071	7
0	7708	12653.422229566415	6
0	7710	12658.563671131277	5
0	7712	12667.470628521067	6
0	7715	12672.903437909015	5
0	7717	12673.731599129794	4
0	7719	12680.051482361862	5
0	7722	12682.611226591915	4
0	7724	12687.561029740282	5
0	7727	12692.045069601233	4
0	7729	12699.500059583416	5
0	7732	12699.58040753508	6
0	7735	12703.638167521132	7
0	7738	12705.12643371793	8
0	7740	12707.031216513203	9
0	7742	12713.380371874197	8
0	7745	12716.833254343955	7
0	7748	12719.853395585742	6
0	7750	12729.941076550141	7
0	7753	12733.112318390432	8
0	7755	12734.591123562747	7
0	7758	12742.334489195063	6
0	7760	12742.401119570331	5
0	7762	12746.286461411371	4
0	7764	12747.206920065858	5
0	7767	12753.605998411661	6
0	7770	12753.934682777002	5
0	7772	12754.732970669541	4
0	7774	12756.494784938961	5
0	7777	12758.987551349814	4
0	7779	12762.038467971386	3
0	7781	12768.727101572716	4
0	7784	12770.343258246736	3
0	7786	12773.226778472325	2
0	7788	12775.14947670557	3
0	7791	12778.994049972182	4
0	7794	12780.191011950526	3
0	7796	12784.58879560299	4
0	7799	12787.338679388399	5
0	7802	12793.745001624867	4
0	7804	12805.730859746149	3
0	7806	12810.62011846976	4
0	7809	12819.031761613443	3
0	7811	12843.103752869325	2
0	7813	12871.29974462465	1
0	7815	12878.361775601467	2
0	7818	12878.382053669603	3
0	7821	12879.038335274162	4
0	7824	12889.677644663229	5
0	7827	12896.8641248596	6
0	7830	12897.385865927311	5
0	7832	12898.578872456909	4
0	7834	12909.89223742159	3
0	7836	12910.360849906006	2
0	7838	12913.750996403963	3
0	7841	12919.974506859202	2
0	7843	12929.549741591756	3
0	7846	12930.104073919577	2
0	7848	12946.898251493837	3
0	7851	12947.923646778047	4
0	7854	12948.128473386037	5
0	7857	12950.284555911093	6
0	7860	12953.587958580279	5
0	7862	12954.075649256935	4
0	7864	12956.018938324371	3
0	7866	12964.462944209121	4
0	7869	12965.484135462031	3
0	7871	12969.026648284023	4
0	7874	12970.230635801538	5
0	7877	12971.814160973177	6
0	7880	12983.446251264383	5
0	7882	12985.362909732339	6
0	7885	12986.741974768737	7
0	7888	12988.594659086021	6
0	7890	12989.724856916513	7
0	7893	12990.239945959541	8
0	7895	12994.279840614246	7
0	7898	12998.933910100186	6
0	7900	13008.691812958575	5
0	7902	13011.83855082853	6
0	7905	13015.681751054163	7
0	7908	13020.695000400824	6
0	7910	13025.178270284969	7
0	7913	13035.407367635393	8
0	7915	13036.541570867926	7
0	7918	13040.516690528718	8
0	7920	13045.250646369032	7
0	7923	13045.547246526403	6
0	7925	13045.702554340629	7
0	7928	13049.280214029839	6
0	7930	13054.669987781196	5
0	7932	13054.750579290898	4
0	7934	13066.11614536224	5
0	7937	13069.049039567019	4
0	7939	13074.909983403794	3
0	7941	13077.870199914958	4
0	7944	13080.869325382219	3
0	7946	13083.635028922649	4
0	7949	13086.437790984209	3
0	7951	13091.779799571484	2
0	7953	13103.358153715251	3
0	7956	13106.905342658037	4
0	7959	13109.862820636427	3
0	7961	13114.07761238863	4
0	7964	13114.375926579912	5
0	7967	13128.429022650208	6
0	7970	13129.314063662253	5
0	7972	13133.578789172028	6
0	7975	13133.785650530633	7
0	7978	13138.150753831028	6
0	7980	13141.925504361993	7
0	7983	13142.553736359882	6
[...]
1	6982	11384.966002982223	0
1	6985	11388.332852444171	0
1	6988	11388.600667816403	1
1	6990	11393.388976060037	0
1	6993	11400.347892546479	0
1	6995	11407.227047872654	0
1	6998	11408.27470541774	1
1	7000	11415.566875007324	0
1	7003	11417.154579566535	0
1	7005	11419.245607887098	0
1	7007	11420.690788414595	0
1	7009	11423.865667895991	0
1	7011	11435.045859725014	0
1	7014	11446.129853925913	0
1	7016	11455.1420951146	0
1	7019	11461.043677457804	0
1	7022	11466.268362968855	0
1	7025	11471.136599592931	0
1	7027	11473.395134404982	0
1	7030	11476.320107515728	0
1	7033	11480.99220506424	0
1	7035	11487.28827866753	0
1	7038	11495.342925829573	0
1	7040	11509.686011977596	0
1	7042	11511.60196940812	0
1	7045	11517.820135293191	0
1	7048	11522.134673525924	0
1	7050	11523.510211663637	0
1	7052	11524.61059805764	0
1	7055	11525.077368549241	0
1	7057	11527.75249570885	0
1	7060	11529.885359832906	0
1	7062	11529.992878505984	0
1	7065	11539.598881638648	0
1	7068	11543.91074998206	1
1	7070	11550.330638632245	2
1	7072	11551.726341323959	3
1	7074	11554.079681061385	2
1	7077	11555.031963159457	3
1	7079	11557.746713767544	2
1	7082	11558.209788748914	1
1	7085	11567.422710574795	2
1	7087	11568.407528140833	3
1	7089	11570.413665931752	2
1	7092	11573.459822689565	1
1	7095	11573.915280654152	0
1	7098	11575.026802361487	0
1	7100	11577.449348842448	0
1	7102	11578.702877800608	0
1	7104	11580.532334825653	0
1	7106	11591.779366979135	0
1	7109	11597.915228441404	0
1	7111	11598.087736076083	0
1	7113	11602.659990364128	0
1	7116	11616.827256598826	0
1	7119	11619.550660525868	0
1	7121	11628.92794408099	0
1	7124	11629.981777332953	0
1	7127	11633.542004422257	0
1	7129	11636.872543173637	0
1	7132	11640.29726509493	0
1	7135	11644.347971723254	0
1	7138	11648.02076482728	1
1	7140	11651.01152032864	2
1	7142	11657.943441309084	1
1	7145	11658.511305523995	2
1	7147	11661.351984819401	1
1	7150	11662.228316477841	0
1	7153	11663.610569192695	1
1	7155	11666.71698051613	2
1	7157	11671.74435247102	1
1	7160	11679.286000757497	0
1	7163	11683.656253546278	0
1	7165	11689.887645311192	0
1	7167	11697.399846306113	0
1	7169	11698.272382856595	0
1	7171	11712.104853230921	0
1	7173	11719.321830616814	0
1	7176	11740.312367431041	0
1	7179	11741.200353953706	0
1	7181	11747.540883515202	0
1	7184	11748.024522152762	0
1	7186	11748.026729220265	0
1	7188	11748.179165958202	0
1	7191	11749.996349907044	0
1	7194	11754.91472248033	0
1	7197	11755.042165046159	0
1	7199	11755.043810150561	0
1	7201	11764.259793563113	0
1	7203	11772.498986430374	0
1	7206	11775.07534266716	0
1	7208	11780.446444330472	0
1	7211	11781.702149481429	0
1	7214	11786.255654180996	0
1	7216	11786.452015640634	0
1	7218	11802.937486070164	0
1	7221	11806.674698479268	0
1	7224	11813.90228478689	0
1	7227	11824.899595831247	0
1	7229	11826.843611703498	0
1	7231	11828.458973541527	0
1	7234	11834.856980125435	0
1	7237	11835.41048798424	0
1	7239	11841.270466858456	0
1	7242	11844.596731099779	0
1	7245	11846.524169871904	0
1	7248	11849.930183049115	0
1	7250	11851.304230228337	0
1	7253	11857.149399561992	1
1	7255	11864.232799288813	2
1	7257	11868.864739575911	1
1	7260	11870.833310249028	0
1	7263	11872.357570207471	0
1	7265	11874.58563227877	0
1	7268	11875.674581363467	0
1	7270	11876.359925787483	0
1	7273	11878.810397142632	0
1	7275	11880.949293357664	0
1	7278	11886.298433236187	1
1	7280	11887.055759058775	0
1	7283	11887.378136221468	0
1	7285	11889.892741115977	0
1	7288	11894.178858121116	0
1	7290	11894.3705138817	0
1	7292	11894.506779306414	0
1	7295	11906.386960603368	0
1	7297	11908.23509132548	0
1	7299	11910.55920269211	0
1	7302	11920.041447029582	0
1	7304	11932.129642542246	0
1	7306	11936.898874516662	0
1	7308	11945.216000659759	0
1	7311	11959.338248208969	0
1	7314	11964.088950589224	0
1	7316	11965.887504702594	0
1	7318	11971.97966230299	0
1	7321	11973.626468618748	0
1	7323	11982.16334310512	0
1	7326	11993.274920225348	0
1	7328	12013.507469616259	0
1	7331	12014.245978740925	0
1	7333	12018.790165338322	0
1	7335	12019.588027355934	0
1	7338	12029.940205484535	0
1	7340	12039.013934931067	0
1	7343	12040.709593123847	0
1	7346	12041.560716750756	0
1	7349	12041.949748889815	0
1	7352	12049.349420343751	0
1	7354	12056.156069829812	0
1	7357	12058.944391013601	0
1	7360	12060.673728783996	0
1	7363	12065.680502029243	0
1	7365	12068.714493016926	0
1	7367	12079.415738085452	0
1	7370	12080.411356661783	0
1	7372	12095.435379200861	0
1	7374	12097.417475117803	0
1	7376	12106.626036647595	0
1	7379	12116.396371630051	0
1	7381	12120.589217838747	0
1	7383	12125.933117605291	0
1	7385	12141.746998682306	0
1	7388	12143.211999381482	0
1	7390	12147.424661762441	0
1	7392	12148.716033826236	0
1	7395	12152.361237487395	0
1	7398	12164.264245729535	0
1	7401	12174.681360374392	0
1	7404	12175.39122902415	0
1	7407	12180.586237967681	0
1	7410	12183.026163793406	0
1	7413	12187.139790974253	1
1	7415	12187.536303297881	0
1	7418	12189.973347002384	1
1	7420	12196.95490859195	0
1	7423	12208.254076344016	0
1	7425	12216.412790785678	0
1	7428	12222.833400164304	1
1	7430	12224.135183809011	2
1	7432	12230.209111903205	3
1	7434	12231.982045101272	4
1	7436	12234.80400705159	5
1	7438	12237.397113808166	4
1	7441	12241.474528552851	5
1	7443	12243.138103973761	4
1	7446	12250.035043621713	3
1	7449	12259.437946191972	2
1	7452	12260.310876057053	1
1	7455	12261.904702816662	2
1	7457	12262.166706828063	1
1	7460	12263.208267460798	0
1	7463	12264.244916342092	1
1	7465	12267.44212798337	2
1	7467	12267.835847248219	3
1	7469	12273.323860461574	4
1	7471	12279.028579055103	3
1	7474	12284.468661418531	2
1	7477	12287.346256810957	1
1	7480	12288.283662481534	2
1	7482	12288.987146818717	1
1	7485	12302.069527201266	2
1	7487	12304.660190365177	3
1	7489	12308.55317855327	2
1	7492	12309.268861578443	1
1	7495	12321.891522776932	0
1	7498	12322.388083698012	0
1	7500	12322.682394847363	0
1	7502	12323.457852248591	0
1	7505	12326.190758980944	0
1	7508	12329.191905672654	0
1	7510	12335.792311740637	0
1	7512	12338.807344647869	0
1	7515	12339.515984554991	0
1	7518	12342.400330693317	0
1	7520	12351.811349583911	0
1	7523	12351.860952329093	1
1	7525	12360.672747867502	2
1	7527	12361.863996402257	1
1	7530	12362.50353792475	2
1	7532	12365.829408250748	3
1	7534	12369.161716325425	4
1	7536	12371.682773351389	5
1	7538	12375.739175524187	4
1	7541	12378.745430266299	5
1	7543	12379.1109031174	4
1	7546	12386.201705163248	3
1	7549	12396.358952397071	4
1	7551	12399.739147028647	3
1	7554	12401.269753714323	2
1	7557	12403.531725820111	1
1	7560	12415.287736473923	0
1	7563	12422.112916624094	1
1	7565	12422.794851511548	0
1	7568	12425.26998481533	0
1	7570	12427.093546594543	0
1	7573	12427.524704569107	0
1	7575	12431.143557032476	0
1	7578	12442.546230262009	0
1	7580	12446.530114415841	0
1	7583	12448.701809208023	0
1	7585	12449.550361153209	0
1	7588	12455.057741829919	0
1	7590	12456.565375278407	0
1	7593	12461.921080111422	1
1	7595	12464.291691650694	0
1	7598	12468.835340051616	0
1	7600	12469.837127399943	0
1	7602	12470.568148502246	0
1	7605	12471.083113984762	0
1	7608	12471.144285599937	0
1	7610	12473.420417235696	0
1	7612	12473.548795865536	0
1	7614	12474.749971288801	0
1	7616	12479.275675033791	0
1	7618	12479.686617509435	0
1	7621	12480.672713803099	0
1	7623	12487.990956059771	0
1	7626	12490.991043988659	0
1	7628	12496.311391752667	0
1	7631	12497.886388316236	0
1	7634	12504.339352038382	0
1	7637	12504.458119105035	0
1	7640	12504.505558905179	0
1	7642	12511.437836957926	0
1	7644	12520.668043896713	0
1	7646	12523.418730564032	0
1	7649	12526.455273861145	0
1	7652	12526.993194339527	0
1	7654	12531.705571617344	0
1	7656	12541.975470510658	0
1	7658	12550.925856652137	0
1	7660	12553.377486247662	0
1	7663	12562.326167785219	0
1	7666	12576.435174262122	0
1	7669	12592.779447951148	0
1	7671	12593.113081408279	0
1	7673	12594.771404494391	0
1	7676	12596.386626846049	0
1	7678	12597.658917554847	0
1	7680	12600.330241701704	0
1	7683	12603.013210284313	0
1	7686	12616.339918814241	0
1	7688	12626.93593133754	0
1	7691	12629.9078945252	0
1	7694	12631.451310094454	0
1	7696	12638.115553440452	0
1	7699	12643.004886535567	0
1	7702	12647.668070846629	0
1	7705	12649.652361220071	0
1	7708	12653.422229566415	0
1	7710	12658.563671131277	0
1	7712	12667.470628521067	0
1	7715	12672.903437909015	0
1	7717	12673.731599129794	0
1	7719	12680.051482361862	0
1	7722	12682.611226591915	0
1	7724	12687.561029740282	0
1	7727	12692.045069601233	0
1	7729	12699.500059583416	0
1	7732	12699.58040753508	0
1	7735	12703.638167521132	0
1	7738	12705.12643371793	1
1	7740	12707.031216513203	2
1	7742	12713.380371874197	1
1	7745	12716.833254343955	0
1	7748	12719.853395585742	0
1	7750	12729.941076550141	0
1	7753	12733.112318390432	1
1	7755	12734.591123562747	0
1	7758	12742.334489195063	0
1	7760	12742.401119570331	0
1	7762	12746.286461411371	0
1	7764	12747.206920065858	0
1	7767	12753.605998411661	0
1	7770	12753.934682777002	0
1	7772	12754.732970669541	0
1	7774	12756.494784938961	0
1	7777	12758.987551349814	0
1	7779	12762.038467971386	0
1	7781	12768.727101572716	0
1	7784	12770.343258246736	0
1	7786	12773.226778472325	0
1	7788	12775.14947670557	0
1	7791	12778.994049972182	0
1	7794	12780.191011950526	0
1	7796	12784.58879560299	0
1	7799	12787.338679388399	0
1	7802	12793.745001624867	0
1	7804	12805.730859746149	0
1	7806	12810.62011846976	0
1	7809	12819.031761613443	0
1	7811	12843.103752869325	0
1	7813	12871.29974462465	0
1	7815	12878.361775601467	0
1	7818	12878.382053669603	0
1	7821	12879.038335274162	0
1	7824	12889.677644663229	0
1	7827	12896.8641248596	0
1	7830	12897.385865927311	0
1	7832	12898.578872456909	0
1	7834	12909.89223742159	0
1	7836	12910.360849906006	0
1	7838	12913.750996403963	0
1	7841	12919.974506859202	0
1	7843	12929.549741591756	0
1	7846	12930.104073919577	0
1	7848	12946.898251493837	0
1	7851	12947.923646778047	0
1	7854	12948.128473386037	0
1	7857	12950.284555911093	0
1	7860	12953.587958580279	0
1	7862	12954.075649256935	0
1	7864	12956.018938324371	0
1	7866	12964.462944209121	0
1	7869	12965.484135462031	0
1	7871	12969.026648284023	0
1	7874	12970.230635801538	0
1	7877	12971.814160973177	0
1	7880	12983.446251264383	0
1	7882	12985.362909732339	0
1	7885	12986.741974768737	0
1	7888	12988.594659086021	0
1	7890	12989.724856916513	0
1	7893	12990.239945959541	1
1	7895	12994.279840614246	0
1	7898	12998.933910100186	0
1	7900	13008.691812958575	0
1	7902	13011.83855082853	0
1	7905	13015.681751054163	0
1	7908	13020.695000400824	0
1	7910	13025.178270284969	0
1	7913	13035.407367635393	1
1	7915	13036.541570867926	0
1	7918	13040.516690528718	1
1	7920	13045.250646369032	0
1	7923	13045.547246526403	0
1	7925	13045.702554340629	0
1	7928	13049.280214029839	0
1	7930	13054.669987781196	0
1	7932	13054.750579290898	0
1	7934	13066.11614536224	0
1	7937	13069.049039567019	0
1	7939	13074.909983403794	0
1	7941	13077.870199914958	0
1	7944	13080.869325382219	0
1	7946	13083.635028922649	0
1	7949	13086.437790984209	0
1	7951	13091.779799571484	0
1	7953	13103.358153715251	0
1	7956	13106.905342658037	0
1	7959	13109.862820636427	0
1	7961	13114.07761238863	0
1	7964	13114.375926579912	0
1	7967	13128.429022650208	0
1	7970	13129.314063662253	0
1	7972	13133.578789172028	0
1	7975	13133.785650530633	0
1	7978	13138.150753831028	0
1	7980	13141.925504361993	0
1	7983	13142.553736359882	0
1	7985	13147.551042448505	0
1	7988	13147.759451718045	1
1	7990	13149.780272813253	2
1	7992	13154.22252766148	3
1	7994	13157.483064913208	2
1	7997	13157.852261205687	3
1	7999	13158.384024923728	4
1	8001	13159.314981679896	5
1	8003	13162.757484936064	4
1	8006	13165.506179961598	5
1	8008	13166.548495418099	6
1	8010	13170.136164183418	5
1	8013	13173.539826365278	4
1	8016	13173.732842634154	3
1	8019	13174.656355028518	2
1	8022	13192.498912254624	1
1	8025	13194.981146492748	2
1	8027	13195.184006689312	3
1	8029	13197.218864171095	2
1	8032	13197.261275687553	1
1	8035	13197.438819809722	2
1	8037	13198.037034822345	1
1	8040	13199.897788683	0
1	8043	13201.991080573177	1
1	8045	13202.311166835342	2
1	8047	13207.215959541939	1
1	8050	13210.55969091581	0
1	8053	13213.145689955749	0
1	8055	13215.520477943372	0
1	8058	13215.530984941538	1
1	8060	13216.444612065212	0
1	8063	13220.120934995863	1
1	8065	13221.834637973291	2
1	8067	13225.717984217194	3
1	8069	13231.136734168175	2
1	8072	13233.421625182363	3
1	8074	13233.799015142851	4
1	8076	13234.130729018081	5
1	8078	13238.226932699158	6
1	8080	13239.668518763326	5
1	8083	13240.650955008172	4
1	8086	13243.91506085451	3
1	8089	13245.765148660725	4
1	8091	13247.526541340994	5
1	8093	13255.304320784713	4
1	8096	13257.851513326126	3
1	8099	13260.448067627093	2
1	8102	13268.373880856386	3
1	8104	13268.643718065185	2
1	8107	13268.781203510361	3
1	8109	13275.821331321392	2
1	8112	13282.663920262256	1
1	8115	13285.044731549809	2
1	8117	13291.402966943949	1
1	8120	13295.762703659799	0
1	8123	13298.27418277504	0
1	8125	13304.517912763792	0
1	8128	13306.792128513449	0
1	8130	13307.116310799002	0
1	8133	13309.340356256838	1
1	8135	13310.535490197269	0
1	8138	13324.118201905965	1
1	8140	13325.659870158738	2
1	8142	13326.003530894049	1
1	8145	13327.466299297378	0
1	8148	13349.726862817159	1
1	8150	13350.965800559533	2
1	8152	13351.099704970641	3
1	8154	13357.888386499987	2
1	8157	13362.545107628332	1
1	8160	13368.068747309181	0
1	8163	13372.116968238289	1
1	8165	13372.742867608605	0
1	8168	13373.901864736824	0
1	8170	13375.994011668039	0
1	8173	13376.498716611977	0
1	8175	13383.51140884007	0
1	8177	13388.970700897071	0
1	8180	13396.103704377975	0
1	8182	13396.33873691096	0
1	8185	13397.476449923604	0
1	8188	13398.771375874854	0
1	8190	13401.032904484725	0
1	8192	13411.545813694054	0
1	8194	13417.056428594462	0
1	8197	13422.647271155628	0
1	8199	13423.668727253594	0
1	8202	13426.728589419845	0
1	8204	13426.956142561145	0
1	8207	13436.033299355521	0
1	8209	13442.483879560655	0
1	8212	13444.274039589936	0
1	8215	13452.811208975287	0
1	8217	13462.74799655146	0
1	8219	13466.257085345235	0
1	8222	13466.469967615344	0
1	8224	13467.271131749209	0
1	8227	13469.934675162078	0
1	8229	13472.547175603519	0
1	8232	13483.568798685537	0
1	8235	13484.759605792425	0
1	8237	13488.685400250933	0
1	8240	13491.834260738498	0
1	8243	13492.283708575863	1
1	8245	13494.322759858142	0
1	8248	13496.913644225465	1
1	8250	13499.359904150905	0
1	8253	13501.391210078371	0
1	8255	13506.807486345586	0
1	8258	13513.999550205393	1
1	8260	13517.705949760639	0
1	8263	13520.544664492435	0
1	8265	13522.060688842438	0
1	8268	13526.600213343926	0
1	8270	13529.023211778506	0
1	8273	13531.04498153208	0
1	8275	13534.361030467423	0
1	8277	13550.754780901634	0
1	8279	13566.385427660664	0
1	8282	13568.51088517348	0
1	8284	13570.02504670897	0
1	8286	13571.654223872664	0
1	8289	13575.511524814073	0
1	8292	13581.57147634583	0
1	8294	13587.093053771658	0
1	8296	13590.96801936373	0
1	8299	13594.428222268113	0
1	8301	13595.20692250346	0
1	8304	13598.106657206675	0
1	8306	13599.994346643312	0
1	8308	13605.438100456836	0
1	8311	13606.669582833247	0
1	8313	13610.690591914667	0
1	8315	13611.399522822286	0
1	8318	13624.033764814683	0
1	8321	13624.191852966402	0
1	8324	13633.83497059083	0
1	8326	13639.260250804259	0
1	8328	13640.006090524987	0
1	8330	13646.104843685303	0
1	8333	13650.983357874412	0
1	8336	13651.400614603761	0
1	8339	13652.795682427193	0
1	8341	13659.912897663861	0
1	8344	13678.739326294747	0
1	8347	13681.507909230596	0
1	8349	13686.559323364875	0
1	8352	13686.863932417443	0
1	8354	13692.070017486388	0
1	8357	13695.639849734829	0
1	8360	13696.19734441431	0
1	8363	13697.565223573653	0
1	8365	13698.748986590276	0
1	8367	13700.383217849222	0
1	8370	13705.973491236117	0
1	8373	13706.307180639252	1
1	8375	13707.921934306139	0
1	8378	13712.505693384614	1
1	8380	13715.056103554108	2
1	8382	13719.701097451957	1
1	8385	13729.846532644592	2
1	8387	13736.1121400281	3
1	8389	13739.313965163885	2
1	8392	13742.440315548323	1
1	8395	13748.638483041347	0
1	8398	13749.2762841836	1
1	8400	13751.254433728581	0
1	8403	13752.358728875313	1
1	8405	13759.494470872529	2
1	8407	13759.698744785263	1
1	8410	13763.520291287407	2
1	8412	13765.789345407117	1
1	8415	13767.47353189495	2
1	8417	13779.11777683897	1
1	8420	13779.742100815844	2
1	8422	13781.864087232001	1
1	8425	13789.047650449818	0
1	8428	13792.213179299685	0
1	8430	13800.521048582369	0
1	8432	13804.753785095114	0
1	8435	13809.279509048322	0
1	8438	13817.954065021408	0
1	8440	13821.905618978795	0
1	8443	13823.901568316199	1
1	8445	13826.398503904964	0
1	8448	13828.420284236836	1
1	8450	13831.096997549141	0
1	8453	13831.312226099556	1
1	8455	13837.316768040356	0
1	8458	13839.028058085223	0
1	8460	13840.401697162846	0
1	8463	13845.500514600446	0
1	8465	13849.99539287023	0
1	8468	13860.994544559281	0
1	8470	13863.306584883057	0
1	8472	13876.298567144086	0
1	8474	13877.748364027422	0
1	8476	13878.748797881359	0
1	8478	13890.979906154314	0
1	8481	13894.721972396776	0
1	8483	13895.304165839129	0
1	8486	13900.052662793028	0
1	8489	13903.20082490519	0
1	8491	13903.745980128554	0
1	8493	13923.699407990737	0
1	8496	13933.051052026489	0
1	8499	13936.029935435698	0
1	8501	13945.210342398588	0
1	8503	13948.400771359851	0
1	8506	13948.54161165856	0
1	8509	13949.587819884135	0
1	8512	13963.150847168951	0
1	8515	13966.904196112627	0
1	8517	13969.776572664454	0
1	8519	13971.003254122665	0
1	8522	13973.912083884232	0
1	8525	13975.305897113953	0
1	8528	13975.834359120989	0
1	8530	13980.506051752116	0
1	8533	13986.652674747111	0
1	8535	13987.181382616108	0
1	8537	13988.429428419453	0
1	8540	14000.793450546607	0
1	8542	14015.286899730424	0
1	8544	14016.235601993299	0
1	8547	14018.817325582275	0
1	8549	14019.815805284028	0
1	8552	14036.488763639769	0
1	8555	14061.30849765697	0
1	8558	14062.466270517864	0
1	8560	14064.766483800027	0
1	8562	14066.437404833835	0
1	8564	14072.585571238033	0
1	8566	14080.951308660769	0
1	8569	14089.351577684785	0
1	8572	14090.791777439479	0
1	8575	14091.428795761903	0
1	8578	14093.055590960766	0
1	8580	14093.270680920244	0
1	8582	14094.93898976981	0
1	8585	14096.099419917938	0
1	8587	14097.026986130069	0
1	8589	14097.309959413251	0
1	8592	14097.805301700528	0
1	8594	14112.188683304752	0
1	8597	14120.766122606134	0
1	8599	14121.754574459984	0
1	8602	14129.213431722979	0
1	8605	14131.154757710093	0
1	8608	14136.255580350191	0
1	8610	14141.607347141928	0
1	8613	14149.986196602332	0
1	8615	14150.504234620748	0
1	8617	14162.761057015468	0
1	8619	14166.229905341658	0
1	8622	14166.593002359561	0
1	8624	14172.648351674365	0
1	8627	14179.886009210651	0
1	8630	14183.6810217552	0
1	8632	14185.60350004211	0
1	8634	14192.83097006704	0
1	8637	14193.933874580973	0
1	8640	14197.026982772857	0
1	8643	14198.32333668323	0
1	8645	14201.820660947148	0
1	8647	14202.721908368867	0
1	8650	14207.287862794316	0
1	8652	14210.513154794661	0
1	8654	14222.665773390665	0
1	8656	14226.266396456341	0
1	8659	14227.916381856661	0
1	8662	14228.73764799513	0
1	8664	14233.213036696681	0
1	8667	14233.731266837804	0
1	8670	14246.048345163147	0
1	8673	14247.699414587737	0
1	8675	14250.609822767819	0
1	8678	14255.184778884846	0
1	8680	14257.09728615331	0
1	8682	14261.490890523543	0
1	8684	14263.382576829483	0
1	8686	14263.937558370639	0
1	8688	14278.401929581189	0
1	8691	14283.974078186188	0
1	8694	14302.066083919924	0
1	8696	14315.28419659857	0
1	8699	14316.064811123471	0
1	8701	14316.405383948709	0
1	8704	14316.693143724214	0
1	8707	14326.183356331904	0
1	8709	14326.206176963109	0
1	8711	14328.174362625855	0
1	8714	14328.261023093984	0
1	8717	14332.037650336709	0
1	8720	14332.039942601449	0
1	8722	14333.450134966537	0
1	8725	14333.820588619337	0
1	8728	14336.491611911608	1
1	8730	14338.776117653027	2
1	8732	14340.049231804154	1
1	8735	14343.881391698918	0
1	8738	14346.523571476374	0
1	8740	14353.921806283391	0
1	8742	14356.875796665633	0
1	8745	14361.164600687591	0
1	8748	14366.26023754399	1
1	8750	14369.551384089236	0
1	8753	14370.446822408962	0
1	8755	14370.659385655053	0
1	8757	14371.440158892259	0
1	8759	14383.299952441302	0
1	8761	14385.803581300834	0
1	8764	14388.843126639713	0
1	8767	14398.118332205445	0
1	8769	14399.388819559184	0
1	8771	14399.952004172875	0

