version 2
run POLICY_1-8-20191213-12:40:09-1215
attr configname POLICY_1
attr datetime 20191213-12:40:09
attr experiment POLICY_1
attr inifile omnetpp.ini
attr iterationvars ""
attr iterationvarsf ""
attr measurement ""
attr network Carrefour
attr processid 1215
attr repetition 8
attr replication #8
attr resultdir results
attr runnumber 8
attr seedset 8
param **.policy 1
param **.delta 0s
param **.tillsNumber 7
param **.capacity 0.3
param **.meanInterArrivalTime 8s
param **.meanItemsInACart 12
param **.interArrivalDistribution 0
param **.itemsInCartDistribution 0

vector 0 Carrefour.decider stats_numCustomers:vector ETV
attr "" ""
attr source numCustomers
vector 1 Carrefour.decider stats_numCustomersQueue:vector ETV
attr "" ""
attr source numCustomersQueue
0	787	1206.853357861759	8
0	790	1208.674544585959	7
0	793	1209.445402459802	6
0	795	1211.304566099303	7
0	798	1211.341816994588	6
0	800	1218.622849848856	5
0	802	1221.583149742892	6
0	805	1221.793954988618	5
0	807	1228.817043351467	4
0	809	1232.538254082004	3
0	811	1232.844385041379	2
0	813	1247.293492098268	1
0	815	1248.759078629171	2
0	818	1251.633202234883	3
0	821	1256.49725378196	4
0	824	1263.430357904794	3
0	826	1271.259710112935	4
0	829	1273.910762763472	3
0	831	1275.351957133831	4
0	834	1276.884606721107	5
0	837	1279.725896948104	6
0	840	1280.367490993497	7
0	843	1291.252890021914	6
0	845	1294.466342385716	7
0	848	1295.527188550949	8
0	850	1301.070829932736	7
0	853	1301.363219911578	6
0	855	1303.625029957233	5
0	857	1306.083873563531	4
0	859	1307.119516600229	3
0	861	1314.776647647174	4
0	864	1323.817992456471	5
0	867	1328.307528375963	4
0	869	1334.611622461992	3
0	871	1335.442139769094	4
0	874	1341.875883368186	3
0	876	1342.034201654978	2
0	878	1345.874999374479	1
0	880	1353.07874286526	2
0	883	1353.644825080381	3
0	886	1354.846061688955	4
0	889	1362.297835047584	5
0	892	1370.015388639947	6
0	895	1387.174771208683	5
0	897	1391.296509745515	4
0	899	1392.418835724054	5
0	902	1395.895402145785	4
0	904	1396.445454236216	5
0	907	1397.307406889648	6
0	910	1398.013688751712	5
0	912	1399.015813846651	4
0	914	1402.15472056641	5
0	917	1430.187985545359	4
0	919	1432.52270266368	5
0	922	1433.122344009677	4
0	924	1450.68676471912	3
0	926	1453.437983953587	4
0	929	1456.966996586145	5
0	932	1458.640549557581	6
0	935	1467.135410311272	7
0	938	1467.730586431077	6
0	940	1471.510103643977	7
0	943	1472.558135404086	8
0	945	1474.851948562743	7
0	948	1477.566768162439	6
0	950	1478.561009864216	7
0	953	1483.948394352228	6
0	955	1486.218206631673	5
0	957	1495.903152499809	4
0	959	1499.816983203417	3
0	961	1504.587132316557	4
0	964	1506.450537568635	5
0	967	1514.87616429611	6
0	970	1523.764195890679	7
0	973	1524.997540916325	6
0	975	1534.333499979771	5
0	977	1545.840351267974	6
0	980	1551.165869451121	5
0	982	1551.580395793642	6
0	985	1556.393504591514	5
0	987	1560.493298527849	4
0	989	1560.700658460611	3
0	991	1570.740394818346	4
0	994	1571.220888738501	5
0	997	1575.816804962467	6
0	1000	1576.451655076573	5
0	1002	1579.090884375696	4
0	1004	1581.698929036411	3
0	1006	1582.065602704227	4
0	1009	1590.723687686015	3
0	1011	1603.379088877532	2
0	1013	1603.72132378184	3
0	1016	1611.053194703028	4
0	1019	1620.852512529422	5
0	1022	1620.984973006482	4
0	1024	1625.877297626749	3
0	1026	1627.426628437393	4
0	1029	1628.721056829	3
0	1031	1629.912996396795	4
0	1034	1635.590914400503	3
0	1036	1638.172910856955	4
0	1039	1639.758239621681	5
0	1042	1639.9731552806	4
0	1044	1648.760140578618	3
0	1046	1667.49344871745	4
0	1049	1676.019977331949	5
0	1052	1682.365201479366	4
0	1054	1692.461546276368	5
0	1057	1697.546999739789	4
0	1059	1702.399631605022	3
0	1061	1706.270570192148	4
0	1064	1712.596106094102	3
0	1066	1716.493610746296	2
0	1068	1721.563414748821	3
0	1071	1738.560338697698	2
0	1073	1740.643227869841	3
0	1076	1744.3558761222	4
0	1079	1749.33820915072	3
0	1081	1751.002218474844	2
0	1083	1752.227631549931	3
0	1086	1758.835449490313	2
0	1088	1761.234384839747	3
0	1091	1762.655660786262	4
0	1094	1764.152797671117	5
0	1097	1766.799142205666	6
0	1100	1768.027453397158	7
0	1103	1768.193070241926	6
0	1105	1775.125369522109	7
0	1108	1778.697541261153	8
0	1110	1779.645552242742	9
0	1112	1783.4004838096	8
0	1115	1788.932759995049	7
0	1118	1791.330643794298	6
0	1120	1793.875495791053	7
0	1123	1796.113155733624	6
0	1125	1796.38794821225	7
0	1128	1799.32778635765	6
0	1130	1800.42550262201	7
0	1133	1800.441393607126	8
0	1135	1801.573484429004	7
0	1138	1813.309156651054	8
0	1140	1831.382387264572	7
0	1143	1831.459526186913	8
0	1145	1832.06251439825	9
0	1147	1832.11444010963	8
0	1150	1836.953560175805	7
0	1153	1852.267154879642	6
0	1155	1853.374106361492	7
0	1158	1854.990941451639	6
0	1160	1864.093652468668	7
0	1163	1867.420612370319	8
0	1165	1868.611344306313	9
0	1167	1871.245913023561	8
0	1170	1873.004841891395	9
0	1172	1873.878260834783	8
0	1175	1875.34332612736	7
0	1178	1877.390634278977	6
0	1180	1879.249096261771	7
0	1183	1880.237063243087	6
0	1185	1888.1231590917	7
0	1188	1888.659334534613	6
0	1190	1889.665496219433	7
0	1193	1893.361929331913	6
0	1195	1894.851160946965	5
0	1197	1897.223811975974	6
0	1200	1897.38357398444	7
0	1203	1906.035798585327	8
0	1205	1908.504047703415	9
0	1207	1914.163035784292	10
0	1209	1916.042750447484	9
0	1212	1916.850052397988	8
0	1215	1918.626789859701	7
0	1218	1919.818675806002	8
0	1220	1927.504607245408	7
0	1223	1927.880952992664	8
0	1225	1928.509773691029	7
0	1228	1935.617716360201	8
0	1230	1936.534193476489	9
0	1232	1939.29879360929	8
0	1235	1940.80558661276	7
0	1238	1945.051597547525	6
0	1240	1951.9041864839	7
0	1243	1966.527167063666	6
0	1245	1974.021903415068	5
0	1247	1976.064503432323	6
0	1250	1995.931702020312	7
0	1253	1996.203726963619	8
0	1255	1999.190819035883	7
0	1258	2002.737660483453	6
0	1260	2004.290688467474	5
0	1262	2014.342748096617	6
0	1265	2015.159089377049	7
0	1268	2015.253203724683	6
0	1270	2015.699205062335	7
0	1273	2030.714960803204	8
0	1275	2039.535405132586	7
0	1278	2043.349669454886	6
0	1280	2050.032411345476	5
0	1282	2056.634832469243	6
0	1285	2057.003887262932	5
0	1287	2064.216438733728	6
0	1290	2067.905446240894	5
0	1292	2075.278250058559	4
0	1294	2079.633485693507	5
0	1297	2083.209369279842	4
0	1299	2089.269307932597	5
0	1302	2093.454281553747	6
0	1305	2099.846968958187	7
0	1308	2101.310299790646	8
0	1310	2101.537185711139	7
0	1313	2106.036214242561	6
0	1315	2110.991569795405	5
0	1317	2113.979325886208	4
0	1319	2114.65537496034	5
0	1322	2119.698179018671	6
0	1325	2127.969365962915	7
0	1328	2129.27716745395	8
0	1330	2131.037127420707	9
0	1332	2132.614015686208	10
0	1334	2135.343325995915	9
0	1337	2143.321656707644	8
0	1340	2144.487837276874	9
0	1342	2146.086288306399	8
0	1345	2154.187207615014	9
0	1347	2157.567335476077	10
0	1349	2160.591766356285	9
0	1352	2164.858375899347	10
0	1354	2167.177000077969	9
0	1357	2167.201437146296	8
0	1360	2168.85603971789	7
0	1363	2180.057244870764	8
0	1365	2180.705268987532	7
0	1368	2184.733148841742	8
0	1370	2185.461830484063	7
0	1373	2188.073022993484	8
0	1375	2192.303307068709	7
0	1378	2195.643229184528	8
0	1380	2202.398088221529	7
0	1383	2203.849178598658	6
0	1385	2214.083898284785	5
0	1387	2224.181235103813	6
0	1390	2224.55022900287	5
0	1392	2228.676501158783	4
0	1394	2229.498983828999	3
0	1396	2242.458856471702	4
0	1399	2244.481799985351	5
0	1402	2253.17518000907	4
0	1404	2253.562766866969	3
0	1406	2256.407809951742	4
0	1409	2262.989102689806	3
0	1411	2264.545541719496	4
0	1414	2265.609771529856	3
0	1416	2268.649039857797	2
0	1418	2270.672470725269	3
0	1421	2271.854506827206	4
0	1424	2276.538556148261	5
0	1427	2277.647128874554	6
0	1430	2279.123934456673	5
0	1432	2282.709634968386	6
0	1435	2283.937484566828	5
0	1437	2288.561999260586	4
0	1439	2291.137424768319	5
0	1442	2293.110204791554	4
0	1444	2299.771860221114	3
0	1446	2307.068282476428	4
0	1449	2310.255874373258	3
0	1451	2314.556567832406	2
0	1453	2316.726541710415	1
0	1455	2317.178529565493	2
0	1458	2338.434575151781	3
0	1461	2339.027899687777	2
0	1463	2339.272909227604	3
0	1466	2344.550997124489	4
0	1469	2351.444009731353	5
0	1472	2354.565046790815	4
0	1474	2357.035292856749	5
0	1477	2361.318054191761	6
0	1480	2364.226222106786	5
0	1482	2364.803728392715	6
0	1485	2365.965654834805	7
0	1488	2367.457633792079	8
0	1490	2373.28971669284	9
0	1492	2374.159340222353	10
0	1494	2374.694655674486	11
0	1496	2378.610175519884	12
0	1498	2396.888768042513	13
0	1500	2398.15580519762	14
0	1502	2398.949395191423	15
0	1504	2400.682476706648	16
0	1506	2401.732452296503	15
0	1509	2404.033236513154	14
0	1512	2407.303823478386	13
0	1515	2412.186187472198	12
0	1518	2416.576126006467	13
0	1520	2417.886954161337	12
0	1523	2418.599845676671	13
0	1525	2420.313792213003	12
0	1528	2420.965023497569	11
0	1531	2423.7561072591	10
0	1534	2429.329559425773	11
0	1536	2429.507199922465	10
0	1539	2440.727789120458	9
0	1542	2443.628336104227	10
0	1544	2444.601262801175	11
0	1546	2448.35974529825	10
0	1549	2455.66806405698	9
0	1552	2456.075739677185	8
0	1555	2459.890861734304	7
0	1558	2460.404636243173	8
0	1560	2464.83605794271	7
0	1563	2466.663743444393	8
0	1565	2471.633259128303	7
0	1568	2473.093224441566	6
0	1570	2475.828337412196	5
0	1572	2477.956364262436	6
0	1575	2479.117873943759	5
0	1577	2495.703701036969	4
0	1579	2506.049108100736	5
0	1582	2506.485968386886	6
0	1585	2506.603631110322	5
0	1587	2508.756309406313	6
0	1590	2513.785108447231	5
0	1592	2530.944428396672	4
0	1594	2536.012974496598	5
0	1597	2542.828725545391	6
0	1600	2543.138382517458	5
0	1602	2543.838322257147	6
0	1605	2550.553610199783	7
0	1608	2558.754720980018	8
0	1610	2562.096956268082	9
0	1612	2564.354765764334	10
0	1614	2565.329550448809	9
0	1617	2565.356792654547	10
0	1619	2579.360688369293	11
0	1621	2584.013442125514	10
0	1624	2585.651628747038	11
0	1626	2585.747140620356	10
0	1629	2589.564557679707	9
0	1632	2592.502314319451	8
0	1635	2593.759362979706	9
0	1637	2600.471500109333	10
0	1639	2600.605116602037	11
0	1641	2601.788177595155	10
0	1644	2607.267170111712	9
0	1647	2608.305298661105	8
0	1650	2620.282749381254	9
0	1652	2622.450631005713	8
0	1655	2623.123760838455	7
0	1658	2624.206338334715	8
0	1660	2625.966986291187	7
0	1663	2629.692352776623	6
0	1665	2632.082908306178	7
0	1668	2632.330407053205	6
0	1670	2648.117964762324	7
0	1673	2653.090002648729	6
0	1675	2653.593429435509	7
0	1678	2653.627124230416	6
0	1680	2658.181048816169	7
0	1683	2659.821950850187	8
0	1685	2661.670419136355	7
0	1688	2662.269016755008	6
0	1690	2671.041693961536	7
0	1693	2674.980069061517	8
0	1695	2678.996011151289	7
0	1698	2684.763058557514	8
0	1700	2686.110240061756	7
0	1703	2687.094783501033	6
0	1705	2690.597296646611	5
0	1707	2691.565290415548	6
0	1710	2694.289492122039	5
0	1712	2696.699373073652	4
0	1714	2699.410420995133	3
0	1716	2700.094249448812	4
0	1719	2709.26617983211	3
0	1721	2710.489075549383	4
0	1724	2711.313075759866	5
0	1727	2717.853773642207	4
0	1729	2727.065510890062	3
0	1731	2732.38132013233	2
0	1733	2746.520118598865	3
0	1736	2756.72171037575	4
0	1739	2758.425163344479	5
0	1742	2762.621017669984	6
0	1745	2771.56298706859	7
0	1748	2780.769152295858	6
0	1750	2782.078578180539	7
0	1753	2784.576524137861	6
0	1755	2786.37229185774	7
0	1758	2794.17735673893	6
0	1760	2795.583868595058	5
0	1762	2796.477327374975	4
0	1764	2797.35486097261	3
0	1766	2804.576036305985	2
0	1768	2807.845547848821	1
0	1770	2810.553904033876	2
0	1773	2818.649891895209	3
0	1776	2820.053242444561	4
0	1779	2820.101148505498	5
0	1782	2824.743198242772	4
0	1784	2837.494389487048	5
0	1787	2840.766449345579	4
0	1789	2843.367832270804	3
0	1791	2846.875032251	2
0	1793	2848.067304326792	3
0	1796	2851.871151799741	2
0	1798	2853.767482483763	1
0	1800	2857.809492324991	2
0	1803	2871.739565185394	3
0	1806	2875.156312488619	4
0	1809	2875.531466981924	5
0	1812	2877.018752516903	6
0	1815	2878.257453939534	5
0	1817	2880.543461529736	6
0	1820	2884.127671620588	7
0	1823	2884.680106138513	6
0	1825	2885.25257424422	5
0	1827	2886.119708719956	6
0	1830	2889.09898918608	5
0	1832	2889.490326027932	6
0	1835	2894.334008052482	5
0	1837	2897.862529731018	6
0	1840	2906.639575494979	7
0	1843	2906.819637235514	6
0	1845	2907.273176554603	5
0	1847	2907.362539341209	6
0	1850	2908.639597855829	5
0	1852	2908.77445901318	4
0	1854	2909.141781805478	3
0	1856	2916.87080817519	4
0	1859	2920.18379274887	5
0	1862	2925.427283681539	4
0	1864	2929.115045465113	3
0	1866	2933.64539906869	4
0	1869	2942.242411898972	5
0	1872	2944.054977332869	6
0	1875	2947.927300801418	5
0	1877	2952.145773936334	4
0	1879	2954.438148248319	3
0	1881	2954.660160601775	2
0	1883	2958.25017300964	3
0	1886	2960.107172422999	2
0	1888	2960.399206098917	1
0	1890	2961.116909328441	2
0	1893	2962.193194018738	1
0	1895	2962.792399271437	2
0	1898	2969.540009559114	1
0	1900	2976.486590922844	2
0	1903	2976.604518812299	3
0	1906	2980.939961232752	4
0	1909	2982.940699960833	5
0	1912	2990.284783020269	6
0	1915	2997.795566383935	5
0	1917	2999.184656184466	4
0	1919	3002.399381284153	5
0	1922	3003.896493741821	6
0	1925	3003.929235521539	7
0	1928	3008.876356253335	6
0	1930	3009.317656200471	7
0	1933	3016.625391510256	6
0	1935	3018.685077122381	7
0	1938	3018.929859594508	6
0	1940	3020.097112499921	7
0	1943	3020.213427119018	6
0	1945	3021.980789257832	7
0	1948	3031.345958659902	6
0	1950	3036.087933297609	7
0	1953	3047.990080277065	6
0	1955	3050.204582692595	7
0	1958	3054.033448825561	6
0	1960	3061.107390533601	7
0	1963	3066.163157240482	6
0	1965	3074.299990947477	5
0	1967	3074.306093708745	6
0	1970	3078.28003121706	7
0	1973	3087.188956412383	6
0	1975	3087.676832699	5
0	1977	3093.463103312435	4
0	1979	3100.989955534959	5
0	1982	3106.301971618392	4
0	1984	3107.705926627045	5
0	1987	3113.166980445176	6
0	1990	3122.039166334422	5
0	1992	3138.744927168376	4
0	1994	3139.276245275097	5
0	1997	3144.527100378352	6
0	2000	3148.309788991699	5
0	2002	3165.619540214631	6
0	2005	3166.78727710409	5
0	2007	3173.989383582145	4
0	2009	3179.255163264093	5
0	2012	3180.568682234319	6
0	2015	3184.846101141269	5
0	2017	3187.132915243653	6
0	2020	3191.736304010402	5
0	2022	3192.602515818904	6
0	2025	3192.690816787815	5
0	2027	3206.344931192853	4
0	2029	3206.885312814992	5
0	2032	3209.115061962265	6
0	2035	3216.672415951661	7
0	2038	3219.034749127799	8
0	2040	3220.504949017769	7
0	2043	3222.750202499439	8
0	2045	3240.096654029766	9
0	2047	3247.493581675019	8
0	2050	3251.413566078458	7
0	2053	3252.577358380696	8
0	2055	3253.095954074468	7
0	2058	3253.157770822839	6
0	2060	3256.980824670056	5
0	2062	3257.358438464474	4
0	2064	3266.620474213163	5
0	2067	3273.582217314183	6
0	2070	3274.686781537512	7
0	2073	3279.393423721555	6
0	2075	3280.253433812257	5
0	2077	3283.234146646248	4
0	2079	3284.277713597567	5
0	2082	3290.187260011904	6
0	2085	3290.680065325572	7
0	2088	3290.864552846473	6
0	2090	3295.367327196016	7
0	2093	3297.045840479906	8
0	2095	3297.240609922736	7
0	2098	3299.977981962508	8
0	2100	3304.040437153068	9
0	2102	3307.622585276947	8
0	2105	3310.880470309731	7
0	2108	3313.458384272375	6
0	2110	3314.444114144867	7
0	2113	3317.317039085706	6
0	2115	3319.817979072509	5
0	2117	3321.516566180637	4
0	2119	3325.13052931279	5
0	2122	3325.208131174305	4
0	2124	3326.399373315699	5
0	2127	3332.826943803837	6
0	2130	3347.130580027402	5
0	2132	3350.370075486621	6
0	2135	3352.573007691733	7
0	2138	3355.432242112296	6
0	2140	3360.758561286809	5
0	2142	3368.371354841408	6
0	2145	3370.646748964105	5
0	2147	3387.591415347585	6
0	2150	3387.866601373743	7
0	2153	3388.070850499864	8
0	2155	3389.182796204879	9
0	2157	3391.003197488753	8
0	2160	3391.930270383871	9
0	2162	3392.527783597888	10
0	2164	3394.319092524003	11
0	2166	3394.539058941738	12
0	2168	3398.169039418354	13
0	2170	3400.747681552044	12
0	2173	3401.571058222579	11
0	2176	3405.784228174881	12
0	2178	3405.861800569398	11
0	2181	3407.188405021776	10
0	2184	3409.952749944665	9
0	2187	3410.347989692405	8
0	2190	3415.962637525423	7
0	2193	3418.541157562652	6
0	2195	3423.061492721629	7
0	2198	3426.104886017331	6
0	2200	3432.693552544919	7
0	2203	3439.149951193417	6
0	2205	3441.963611977544	7
0	2208	3445.504441885993	8
0	2210	3446.708597512926	9
0	2212	3454.223476127638	8
0	2215	3457.324000277111	7
0	2218	3458.062594059419	6
0	2220	3461.185820275111	5
0	2222	3467.123766376592	6
0	2225	3468.498410992087	5
0	2227	3468.785416005323	6
0	2230	3470.849420677431	5
0	2232	3471.298214098436	6
0	2235	3471.624643068333	7
0	2238	3475.358823130203	6
0	2240	3477.024887018449	7
0	2243	3478.72079458646	8
0	2245	3487.420462920524	7
0	2248	3487.65298859128	6
0	2250	3489.241476832976	7
0	2253	3490.819181331295	8
0	2255	3490.889856873861	9
0	2257	3493.706402195109	8
0	2260	3493.88237187146	9
0	2262	3495.811036246057	8
0	2265	3505.961083635202	9
0	2267	3509.231674059845	8
0	2270	3513.836135592646	9
0	2272	3519.968773991708	8
0	2275	3526.508170083129	7
0	2278	3527.348323371585	6
0	2280	3528.552806885292	5
0	2282	3529.141887280653	4
0	2284	3536.551063071336	5
0	2287	3546.128413617688	4
0	2289	3546.659272484735	5
0	2292	3547.879808436049	4
0	2294	3549.547849340059	5
0	2297	3550.668739419662	6
0	2300	3553.749910106116	7
0	2303	3557.613786773606	6
0	2305	3559.983021229424	7
0	2308	3563.486362043412	6
0	2310	3567.721313889188	7
0	2313	3573.594181503649	6
0	2315	3581.073744835679	5
0	2317	3582.166591312869	6
0	2320	3584.063020702752	7
0	2323	3584.934079079801	6
0	2325	3585.585492369939	5
0	2327	3587.680420165338	6
0	2330	3596.836881624662	7
0	2333	3603.412775159344	8
0	2335	3604.359091170235	7
0	2338	3609.84228302472	6
0	2340	3612.381316459551	7
0	2343	3617.198955863626	6
0	2345	3618.296290092407	7
0	2348	3620.177577604053	6
0	2350	3621.244237178855	5
0	2352	3633.304433060196	6
0	2355	3638.296482036451	5
0	2357	3640.026017287444	6
0	2360	3641.675970239302	7
0	2363	3651.738470666566	6
0	2365	3652.908163825005	5
0	2367	3657.107808887642	4
0	2369	3660.328855378043	5
0	2372	3664.661394066334	6
0	2375	3667.250388491024	7
0	2378	3669.76261809996	8
0	2380	3675.326705716715	9
0	2382	3678.287670786714	10
0	2384	3678.287706402431	11
0	2386	3680.657983240102	12
0	2388	3681.002449681029	13
0	2390	3685.79861345916	14
0	2392	3688.246801594374	13
0	2395	3688.831682250352	14
0	2397	3698.099045960135	13
0	2400	3700.357794308801	12
0	2403	3700.868684616692	11
0	2406	3710.351224429842	10
0	2409	3712.378407451033	11
0	2411	3718.946423903974	10
0	2414	3719.556851852541	11
0	2416	3719.664991427196	12
0	2418	3719.888720594921	13
0	2420	3720.748380727669	12
0	2423	3726.912482751431	13
0	2425	3730.219933187114	12
0	2428	3730.850269261341	13
0	2430	3736.3883900014	12
0	2433	3744.221587317331	13
0	2435	3756.03077991169	14
0	2437	3758.080972468209	13
0	2440	3759.506780337518	12
0	2443	3759.796471990107	13
0	2445	3759.840313389843	14
0	2447	3762.433767950233	15
0	2449	3770.522635716812	14
0	2452	3774.638566843473	13
0	2455	3776.247372541001	12
0	2458	3776.726662298061	13
0	2460	3781.219879645715	14
0	2462	3781.920640915894	13
0	2465	3783.458059825614	12
0	2468	3786.777775728832	11
0	2471	3787.370673372647	10
0	2474	3788.881865429396	9
0	2477	3791.018196350229	8
0	2480	3792.092127932222	7
0	2483	3792.125027397177	8
0	2485	3806.627525719623	9
0	2487	3816.868045704938	8
0	2490	3817.163251670535	9
0	2492	3818.757387901927	10
0	2494	3821.974695541742	9
0	2497	3830.961529261924	10
0	2499	3835.769142699093	11
0	2501	3842.480029084706	10
0	2504	3853.450155773165	9
0	2507	3854.86134210317	8
0	2510	3856.412098644031	9
0	2512	3859.37792593117	8
0	2515	3866.55257364678	7
0	2518	3866.694748696085	6
0	2520	3873.993088234569	5
0	2522	3876.782945442622	6
0	2525	3880.19777825927	5
0	2527	3883.707565780944	6
0	2530	3885.680849199147	5
0	2532	3885.766841235823	6
0	2535	3887.09040197946	7
0	2538	3887.733832368074	6
0	2540	3889.068282157089	5
0	2542	3896.667985863144	6
0	2545	3902.124607813422	5
0	2547	3902.476204660699	4
0	2549	3906.667414172657	5
0	2552	3911.835658296932	4
0	2554	3917.11401472747	3
0	2556	3919.415279591246	4
0	2559	3922.976712422625	5
0	2562	3925.899124151848	6
0	2565	3935.997548204455	5
0	2567	3944.318126225157	6
0	2570	3946.148184262143	7
0	2573	3955.105058725784	6
0	2575	3957.048574595183	5
0	2577	3960.84043880001	6
0	2580	3962.3263269927	7
0	2583	3964.952805326796	6
0	2585	3969.077395877952	5
0	2587	3972.086434600229	6
0	2590	3985.933617033587	7
0	2593	3987.014914768713	8
0	2595	3990.363671770979	7
0	2598	4005.575818516195	8
0	2600	4009.400059651135	9
0	2602	4012.489594770553	10
0	2604	4016.544416954449	11
0	2606	4020.389863374737	12
0	2608	4025.72830066764	11
0	2611	4031.415036543022	10
0	2614	4036.172402016053	11
0	2616	4037.610471897984	12
0	2618	4044.456473112002	11
0	2621	4046.255326160159	10
0	2624	4047.84641108441	9
0	2627	4056.752281523746	10
0	2629	4062.241505652539	9
0	2632	4064.804032468843	8
0	2635	4083.686323488427	9
0	2637	4089.109330568633	10
0	2639	4091.168052955895	11
0	2641	4097.094434430121	10
0	2644	4097.649669250292	11
0	2646	4099.899202396386	12
0	2648	4100.255479475645	13
0	2650	4100.597076764658	14
0	2652	4101.034894930915	13
0	2655	4102.072196612467	14
0	2657	4105.582778967366	15
0	2659	4112.081684695469	14
0	2662	4113.862958407381	15
0	2664	4116.940858351176	16
0	2666	4118.863608463665	15
0	2669	4121.961486425433	16
0	2671	4127.793969990198	17
0	2673	4128.361223742958	18
0	2675	4130.503060256189	17
0	2678	4130.971114457413	16
0	2681	4133.819658359637	15
0	2684	4134.150599464351	16
0	2686	4135.024628940068	17
0	2688	4136.069719536812	18
0	2690	4136.924657318627	19
0	2692	4140.212901809555	18
0	2695	4141.048230982537	17
0	2698	4147.877757434419	16
0	2701	4155.242946232153	15
0	2704	4161.737797690241	16
0	2706	4164.893691901852	17
0	2708	4172.758123932096	18
0	2710	4179.959536685546	19
0	2712	4180.157077266593	18
0	2715	4182.189781477676	17
0	2718	4192.566997912022	18
0	2720	4193.128547426971	17
0	2723	4198.686856070767	16
0	2726	4199.690163578689	15
0	2729	4204.438862955376	14
0	2732	4205.249161199559	13
0	2735	4205.670883807064	14
0	2737	4207.057229670762	13
0	2740	4211.197360327694	14
0	2742	4215.493608016273	13
0	2745	4217.532766433623	12
0	2748	4221.995023479088	13
0	2750	4222.694659173575	12
0	2753	4222.762631243826	11
0	2756	4222.845303665618	10
0	2759	4224.200274172541	11
0	2761	4227.437424278373	12
0	2763	4233.42930524938	11
0	2766	4233.502970038124	12
0	2768	4234.109508094344	13
0	2770	4245.261062696813	12
0	2773	4249.020206002821	11
0	2776	4249.020960946553	10
0	2779	4250.144238305582	11
0	2781	4250.724552237458	12
0	2783	4254.891172304915	13
0	2785	4256.27470053816	14
0	2787	4263.810410398982	13
0	2790	4267.050220795342	12
0	2793	4277.893793120294	11
0	2796	4277.944511981499	12
0	2798	4280.927733853958	11
0	2801	4281.310013960178	10
0	2804	4283.84548379139	9
0	2807	4284.89849127988	10
0	2809	4291.748966964966	9
0	2812	4295.20586679991	10
0	2814	4298.032869695639	11
0	2816	4300.708693463361	12
0	2818	4304.006592791693	11
0	2821	4308.56724621895	12
0	2823	4312.207771399437	13
0	2825	4312.836582414672	14
0	2827	4316.932848501139	15
0	2829	4323.104522279373	14
0	2832	4325.297132711424	15
0	2834	4326.736806205764	16
0	2836	4327.373178064474	15
0	2839	4329.350084464242	16
0	2841	4342.317162750671	15
0	2844	4347.678697072072	16
0	2846	4348.967722960434	17
0	2848	4355.701757716955	18
0	2850	4367.836980531216	17
0	2853	4373.681972471119	16
0	2856	4380.771872192323	15
0	2859	4381.695932537291	16
0	2861	4382.237380972468	17
0	2863	4385.120829173677	16
0	2866	4396.915953485524	17
0	2868	4399.049697808127	18
0	2870	4400.004583925025	19
0	2872	4401.960530856623	18
0	2875	4404.553898855872	19
0	2877	4408.626756517828	20
0	2879	4432.899319352638	19
0	2882	4438.595728151841	20
0	2884	4439.107167055754	19
0	2887	4439.129460291478	18
0	2890	4439.187336193299	19
0	2892	4439.769872211125	20
0	2894	4440.474379393997	19
0	2897	4448.181763794291	18
0	2900	4461.633988353662	17
0	2903	4461.794231743902	18
0	2905	4464.056703367268	17
0	2908	4464.978335121476	16
0	2911	4467.442794389137	15
0	2914	4469.466335117834	16
0	2916	4473.162828607705	15
0	2919	4482.883210175107	14
0	2922	4483.060090161153	15
0	2924	4484.424996866014	16
0	2926	4491.338704864321	17
0	2928	4493.914509546624	18
0	2930	4494.203382956542	17
0	2933	4503.735245738428	16
0	2936	4505.734340638492	15
0	2939	4506.026178434601	14
0	2942	4506.641187035927	13
0	2945	4508.487531344418	12
0	2948	4512.484728663251	11
0	2951	4515.29693246798	12
0	2953	4516.878381022768	13
0	2955	4519.175024670866	12
0	2958	4522.130898542883	13
0	2960	4523.683958769348	14
0	2962	4524.529003994346	15
0	2964	4524.850586512255	16
0	2966	4527.525730459681	15
0	2969	4528.532000289432	16
0	2971	4530.088192127702	15
0	2974	4534.556736912684	14
0	2977	4537.002699968142	13
0	2980	4548.988483504925	12
0	2983	4551.120976964403	11
0	2986	4551.677413948024	12
0	2988	4553.88874534326	11
0	2991	4558.433470280509	10
0	2994	4561.910270126331	9
0	2997	4563.355765332298	8
0	3000	4575.885653439084	7
0	3003	4577.716943048184	8
0	3005	4578.925412257159	9
0	3007	4579.135379778042	10
0	3009	4580.639059724645	9
0	3012	4581.961243571575	10
0	3014	4586.248358673539	11
0	3016	4589.099112959138	12
0	3018	4591.355375884643	13
0	3020	4596.675701365047	12
0	3023	4600.306078990808	13
0	3025	4600.577188553507	12
0	3028	4601.117230237097	13
0	3030	4601.815471392008	12
0	3033	4620.253502426801	11
0	3036	4625.386672823459	10
0	3039	4629.297876670385	11
0	3041	4637.065012850026	12
0	3043	4645.356840914726	11
0	3046	4645.636550109883	10
0	3049	4646.104322360299	9
0	3052	4651.473240304925	8
0	3055	4653.687845963497	9
0	3057	4654.847148823162	10
0	3059	4659.093387712535	9
0	3062	4660.222276074447	8
0	3065	4662.736548898632	9
0	3067	4662.920154312044	8
0	3070	4663.226928978747	9
0	3072	4663.424236007818	8
0	3075	4670.306834973916	9
0	3077	4672.13949500911	10
0	3079	4683.793507883741	9
0	3082	4688.281897053345	10
0	3084	4689.772040417803	11
0	3086	4690.15544380933	12
0	3088	4691.917409524825	11
0	3091	4692.517237379981	10
0	3094	4697.801630970031	9
0	3097	4702.401981270487	10
0	3099	4705.700944338139	9
0	3102	4707.453610332186	10
0	3104	4718.467466108541	9
0	3107	4726.959171431108	8
0	3110	4728.244588429088	7
0	3113	4729.684792141044	6
0	3115	4734.295702405085	7
0	3118	4740.264231043016	8
0	3120	4741.21376101722	7
0	3123	4741.388362918975	8
0	3125	4744.251179669665	7
0	3128	4747.737514422869	6
0	3130	4759.781470499601	5
0	3132	4763.964770971648	4
0	3134	4772.321550719545	5
0	3137	4773.277634281953	4
0	3139	4774.516872893243	5
0	3142	4774.77995357924	6
0	3145	4774.958770954813	5
0	3147	4776.220988967189	6
0	3150	4776.870491370688	5
0	3152	4777.225537538695	4
0	3154	4780.572954146394	5
0	3157	4786.997044393595	4
0	3159	4787.53854395414	5
0	3162	4797.192485782606	6
0	3165	4797.740063415092	7
0	3168	4803.690621281175	6
0	3170	4804.61644911314	5
0	3172	4808.170087318657	6
0	3175	4810.478461675381	7
0	3178	4817.355579134199	8
0	3180	4820.1767278704	7
0	3183	4825.719287668534	6
0	3185	4826.992700224448	5
0	3187	4831.824664795455	4
0	3189	4836.62213150119	3
0	3191	4842.557038641828	4
0	3194	4861.628092577886	3
0	3196	4863.560534561168	4
0	3199	4866.345730831337	3
0	3201	4868.385125853732	2
0	3203	4868.858847795876	1
0	3205	4905.276483629964	2
0	3208	4905.520685647776	3
0	3211	4912.610597046904	4
0	3214	4914.552247917158	3
0	3216	4922.616827277503	4
0	3219	4933.945274364656	5
0	3222	4934.715944822369	4
0	3224	4937.2995553314	3
0	3226	4945.766440021036	2
0	3228	4948.464817713607	3
0	3231	4953.52800627364	2
0	3233	4963.67322310064	3
0	3236	4977.377477037583	4
0	3239	4979.537423469084	5
0	3242	4981.033416374269	6
0	3245	4981.357710207616	5
0	3247	4991.04033096267	4
0	3249	4991.08738535438	5
0	3252	4991.124604717936	4
0	3254	4992.865487520232	5
0	3257	4996.414825709062	6
0	3260	5007.433684245905	5
0	3262	5009.77125255225	6
0	3265	5012.831219351705	5
0	3267	5021.694847535863	4
0	3269	5025.743252857273	3
0	3271	5027.177536020668	4
0	3274	5027.238190837672	3
0	3276	5028.277018754476	4
0	3279	5037.725971550719	3
0	3281	5041.149673227875	2
0	3283	5046.309617878412	3
0	3286	5048.144742286574	2
0	3288	5048.353456917004	1
0	3290	5050.559100999057	2
0	3293	5060.648648909565	1
0	3295	5065.051316038392	2
0	3298	5065.521751223612	3
0	3301	5065.863820686732	4
0	3304	5066.424022160506	5
0	3307	5071.925816370392	6
0	3310	5072.785476007679	7
0	3313	5073.512783908137	6
0	3315	5075.659976663134	7
0	3318	5080.825152965298	8
0	3320	5082.073209910898	9
0	3322	5082.28972701469	8
0	3325	5086.234568327031	7
0	3328	5086.350950273206	6
0	3330	5088.800395257808	7
0	3333	5089.757867438811	6
0	3335	5095.771645682873	5
0	3337	5105.017959983537	4
0	3339	5112.317336446934	5
0	3342	5112.50380324182	4
0	3344	5113.885807211701	3
0	3346	5115.920569894992	2
0	3348	5116.842332784631	3
0	3351	5117.703663117546	4
0	3354	5118.101246759957	5
0	3357	5120.723017630183	6
0	3360	5129.895458656371	5
0	3362	5135.156979800469	6
0	3365	5137.644042932779	7
0	3368	5138.047676299274	8
0	3370	5140.7149569271	9
0	3372	5141.339691376612	10
0	3374	5141.617564172136	9
0	3377	5141.67956303617	10
0	3379	5145.004670178443	9
0	3382	5149.050906307231	10
0	3384	5152.224379579858	11
0	3386	5154.03952938398	10
0	3389	5154.535057246344	11
0	3391	5155.565868652847	10
0	3394	5158.947223095631	9
0	3397	5163.510041899319	8
0	3400	5165.630608519845	7
0	3403	5169.349493996174	6
0	3405	5179.316706734158	5
0	3407	5182.302767082025	4
0	3409	5183.434356495143	3
0	3411	5186.319919548775	2
0	3413	5207.309065455426	3
0	3416	5211.115351141679	4
0	3419	5218.714135059985	5
0	3422	5220.050811325655	4
0	3424	5220.216821847653	5
0	3427	5222.167381594836	4
0	3429	5223.199125601294	5
0	3432	5224.110411248312	6
0	3435	5229.855484207699	7
0	3438	5232.353336468612	6
0	3440	5232.783178018173	7
0	3443	5240.689735336301	6
0	3445	5243.202156343924	5
0	3447	5245.211871345897	4
0	3449	5245.884660310223	5
0	3452	5258.802466434955	4
0	3454	5258.972029168731	5
0	3457	5260.997812817304	4
0	3459	5270.229173088918	3
0	3461	5285.794703162953	4
0	3464	5297.731082804333	5
0	3467	5301.629550841873	4
0	3469	5307.574566179352	5
0	3472	5314.482120202633	4
0	3474	5319.96995105742	5
0	3477	5320.466616796191	4
0	3479	5325.262675606155	3
0	3481	5325.723720486813	4
0	3484	5333.539704039256	3
0	3486	5337.655903935992	4
0	3489	5339.522311104355	5
0	3492	5344.32659971424	6
0	3495	5348.053090721835	7
0	3498	5350.336049614365	6
0	3500	5351.753398420899	7
0	3503	5356.323280024671	6
0	3505	5360.440042020291	7
0	3508	5371.41493924826	6
0	3510	5376.347947255924	5
0	3512	5378.194471586692	4
0	3514	5378.418152837787	5
0	3517	5385.52926799355	6
0	3520	5387.739145455686	7
0	3523	5389.629291316116	6
0	3525	5395.305474440117	5
0	3527	5399.736654790776	6
0	3530	5400.19489802619	5
0	3532	5403.326148491367	4
0	3534	5416.909340183236	5
0	3537	5417.482422871735	6
0	3540	5423.189373085386	5
0	3542	5426.451873619465	6
0	3545	5430.184810795464	5
0	3547	5432.906983511216	4
0	3549	5439.589077770416	5
0	3552	5443.265263722411	6
0	3555	5449.263375615136	7
0	3558	5454.305713138164	8
0	3560	5457.407400013581	7
0	3563	5457.99085624957	8
0	3565	5458.518627055982	9
0	3567	5459.232592641168	10
0	3569	5460.471563439935	9
0	3572	5462.948071094094	8
0	3575	5463.545711803176	7
0	3578	5467.07523304112	6
0	3580	5468.827297008791	5
0	3582	5477.160258629775	6
0	3585	5484.616989487791	5
0	3587	5488.011928456237	6
0	3590	5489.317764041571	5
0	3592	5489.800592012879	4
0	3594	5491.461124476669	5
0	3597	5495.739440795549	6
0	3600	5496.759100646683	7
0	3603	5498.435214398434	6
0	3605	5499.126436718221	7
0	3608	5500.098847181066	8
0	3610	5506.288796998013	7
0	3613	5507.948819743115	6
0	3615	5513.664463689559	5
0	3617	5524.155937092904	6
0	3620	5524.421938314298	7
0	3623	5527.701397827024	6
0	3625	5531.96875030268	5
0	3627	5533.475667941517	4
0	3629	5539.631095636063	3
0	3631	5541.009515683887	4
0	3634	5542.884710828975	3
0	3636	5549.012368361449	2
0	3638	5549.720555016464	3
0	3641	5554.052582248534	4
0	3644	5558.514022282759	3
0	3646	5569.00794971212	4
0	3649	5579.191602707822	5
0	3652	5585.358807941396	6
0	3655	5591.842178153279	5
0	3657	5592.087290923106	4
0	3659	5592.120050797388	5
0	3662	5593.778584701466	4
0	3664	5597.737635591952	3
0	3666	5599.219560368011	2
0	3668	5604.347537671938	1
0	3670	5607.12214299655	0
0	3672	5610.538486635058	1
0	3675	5612.690336527778	2
0	3678	5616.027525965101	3
0	3681	5616.590546446588	4
0	3684	5621.807162913324	3
0	3686	5629.183934446425	4
0	3689	5635.190174318598	5
0	3692	5636.201911173382	4
0	3694	5637.823084433394	3
0	3696	5641.811631061482	4
0	3699	5643.229335048053	5
0	3702	5647.389519418578	4
0	3704	5651.096404976175	3
0	3706	5653.215334835772	4
0	3709	5656.903223188011	3
0	3711	5659.284949295896	2
0	3713	5664.017059908752	3
0	3716	5671.143343291249	4
0	3719	5672.305461284732	5
0	3722	5677.240661381432	4
0	3724	5677.99385141147	3
0	3726	5685.845697983514	4
0	3729	5689.458870886116	5
0	3732	5690.821295409081	4
0	3734	5693.642972008476	5
0	3737	5698.659713326878	6
0	3740	5698.879561786869	7
0	3743	5713.030351376337	6
0	3745	5716.046723933499	7
0	3748	5716.210462696439	6
0	3750	5724.559851882654	5
0	3752	5727.454480594955	4
0	3754	5736.684797047083	5
0	3757	5739.76510985238	4
0	3759	5746.03433461767	5
0	3762	5750.305545988755	6
0	3765	5752.858738796047	5
0	3767	5754.024658569515	6
0	3770	5756.035937659777	7
0	3773	5758.615733798424	8
0	3775	5760.209962306558	9
0	3777	5760.753803475614	8
0	3780	5770.788761176312	7
0	3783	5773.186608292142	6
0	3785	5780.39303838197	7
0	3788	5781.583427944105	8
0	3790	5783.42828913508	7
0	3793	5783.712211886652	8
0	3795	5784.240840153611	9
0	3797	5787.67673178441	8
0	3800	5788.080803030185	7
0	3803	5792.996052730614	6
0	3805	5793.6339537561	5
0	3807	5794.948198399357	6
0	3810	5805.421832693073	5
0	3812	5805.500077627601	6
0	3815	5805.706685126636	5
0	3817	5806.566004320816	6
0	3820	5814.672129349612	7
0	3823	5816.53515561221	6
0	3825	5816.55000981054	7
0	3828	5817.557501900739	6
0	3830	5819.547787179026	5
0	3832	5829.625992296991	4
0	3834	5830.049073081892	5
0	3837	5833.678447851782	4
0	3839	5833.683254626719	5
0	3842	5836.977420323923	6
0	3845	5854.628385975071	7
0	3848	5858.246494646439	8
0	3850	5858.623868145106	7
0	3853	5863.07901446959	6
0	3855	5866.710566671905	7
0	3858	5872.470542105056	6
0	3860	5873.720368593022	5
0	3862	5898.169870423092	6
0	3865	5898.751036144263	5
0	3867	5905.223252619161	4
0	3869	5913.172996107652	3
0	3871	5918.255076642202	2
0	3873	5922.2226801467	3
0	3876	5923.54575731009	4
0	3879	5923.992299706584	5
0	3882	5924.32436596634	6
0	3885	5928.317510856568	5
0	3887	5930.735542158885	6
0	3890	5936.91497277353	5
0	3892	5944.162014837336	4
0	3894	5950.622672284659	5
0	3897	5953.71480494698	6
0	3900	5955.755190916936	5
0	3902	5960.667881657425	6
0	3905	5966.876101344008	7
0	3908	5974.093802473264	6
0	3910	5974.992224475709	5
0	3912	5976.882895999595	6
0	3915	5979.184861805591	5
0	3917	5979.910716345545	6
0	3920	5987.652678989882	7
0	3923	5991.995372382923	8
0	3925	5993.801367498837	7
0	3928	5996.55096137832	8
0	3930	5999.658735478436	7
0	3933	6009.047705021218	8
0	3935	6011.733904244113	9
0	3937	6012.28943667898	10
0	3939	6013.504440887809	9
0	3942	6017.060016967202	8
0	3945	6018.189891256346	7
0	3948	6019.766103762336	6
0	3950	6019.790246793853	5
0	3952	6020.522116496817	6
0	3955	6023.907745213489	5
0	3957	6025.580152999705	4
0	3959	6026.089879181839	3
0	3961	6033.003743573414	4
0	3964	6034.576253632252	3
0	3966	6039.964723436404	2
0	3968	6041.765534421051	1
0	3970	6042.089590589991	2
0	3973	6053.409497423034	3
0	3976	6060.484814901072	2
0	3978	6071.687310666795	3
0	3981	6078.887190476117	4
0	3984	6087.492842858258	5
0	3987	6088.732764519946	6
0	3990	6089.012638283203	7
0	3993	6093.808002882057	6
0	3995	6095.588846432303	5
0	3997	6099.709041654189	6
0	4000	6102.656657320202	5
0	4002	6107.895798788286	6
0	4005	6110.447606401847	7
0	4008	6110.99338583246	6
0	4010	6118.665938997319	7
0	4013	6124.318238236217	6
0	4015	6127.508123846282	7
0	4018	6128.684427059542	6
0	4020	6133.173909351125	7
0	4023	6137.567038116046	6
0	4025	6137.794207579948	5
0	4027	6137.986896739409	6
0	4030	6138.513089648157	7
0	4033	6140.241381106304	6
0	4035	6147.071990925064	5
0	4037	6148.687840789297	6
0	4040	6154.669946328075	5
0	4042	6156.898367347053	6
0	4045	6161.609100083984	5
0	4047	6165.922059004706	4
0	4049	6166.439345561831	5
0	4052	6167.894383950146	6
0	4055	6170.685503937233	7
0	4058	6173.416338261244	6
0	4060	6177.271787709466	5
0	4062	6180.803580034455	4
0	4064	6187.913459554194	5
0	4067	6189.214861877708	4
0	4069	6192.629434414595	5
0	4072	6198.987900265001	4
0	4074	6200.29143978535	3
0	4076	6205.230104185713	4
0	4079	6208.673365045215	5
0	4082	6211.924667345376	4
0	4084	6212.398157483291	3
0	4086	6214.977589069798	2
0	4088	6220.6452750036	3
0	4091	6221.24961746328	4
0	4094	6226.901882923576	3
0	4096	6241.205498380281	2
0	4098	6253.308199500935	3
0	4101	6253.592802033482	2
0	4103	6254.118440275125	3
0	4106	6254.608154998719	4
0	4109	6257.789133010207	5
0	4112	6260.479509694466	4
0	4114	6265.350054819913	5
0	4117	6267.101533196691	4
0	4119	6267.309257889557	5
0	4122	6269.174358979897	4
0	4124	6275.020296466055	5
0	4127	6277.437488458866	6
0	4130	6278.422165876916	7
0	4133	6283.353144815421	8
0	4135	6288.431839929116	7
0	4138	6288.566881032445	6
0	4140	6288.810595810419	7
0	4143	6291.015196701143	6
0	4145	6292.127311546693	5
0	4147	6297.47076596435	6
0	4150	6298.349619714486	7
0	4153	6301.694099520839	6
0	4155	6303.038418892351	7
0	4158	6305.967184406915	8
0	4160	6307.392635664717	7
0	4163	6307.483399807961	6
0	4165	6311.338596904642	7
0	4168	6312.540852442915	6
0	4170	6313.562527228907	7
0	4173	6317.212331649512	6
0	4175	6321.261743119629	7
0	4178	6324.919729948589	8
0	4180	6338.252527650348	7
0	4183	6340.253986129092	6
0	4185	6351.323876113673	5
0	4187	6363.239563819386	6
0	4190	6368.561467082174	5
0	4192	6368.734194708794	6
0	4195	6371.387329284863	5
0	4197	6372.603735333656	6
0	4200	6380.014262363102	5
0	4202	6381.133098277834	6
0	4205	6383.60053732171	5
0	4207	6383.698459991302	4
0	4209	6384.372889900409	3
0	4211	6395.885823289003	2
0	4213	6400.777037846066	3
0	4216	6405.313351349237	4
0	4219	6407.00029652108	5
0	4222	6421.797754667872	4
0	4224	6426.520298711893	3
0	4226	6427.020026313668	2
0	4228	6439.836567824857	1
0	4230	6448.2755665708	2
0	4233	6450.46988395673	3
0	4236	6456.470167545923	2
0	4238	6461.119074672833	3
0	4241	6472.619543358634	4
0	4244	6475.598616252682	5
0	4247	6477.196560253617	4
0	4249	6479.095861735974	5
0	4252	6480.489324886504	4
0	4254	6483.156539054236	5
0	4257	6483.429011192418	6
0	4260	6484.928694212931	5
0	4262	6486.47442000939	6
0	4265	6487.577321756779	7
0	4268	6488.566486619661	6
0	4270	6490.04104975138	7
0	4273	6494.378706291778	6
0	4275	6495.238335364836	5
0	4277	6499.76795849316	6
0	4280	6508.154616707945	5
0	4282	6514.433890718447	4
0	4284	6518.995934138867	5
0	4287	6523.763358228643	6
0	4290	6527.095836584372	5
0	4292	6531.64253225317	6
0	4295	6536.423467846181	7
0	4298	6537.837698752511	8
0	4300	6542.396282816496	7
0	4303	6542.767321332906	6
0	4305	6552.470579606259	7
0	4308	6557.73502858766	8
0	4310	6559.256610984849	7
0	4313	6564.607666976621	6
0	4315	6566.883793585234	7
0	4318	6567.824171419937	6
0	4320	6579.609371484526	7
0	4323	6582.257849612801	8
0	4325	6588.123873148285	9
0	4327	6588.616906618159	10
0	4329	6591.094114951539	9
0	4332	6592.157407058806	8
0	4335	6592.449420947583	7
0	4338	6592.878300355861	6
0	4340	6598.713095088883	5
0	4342	6600.460169846957	4
0	4344	6601.020689242194	5
0	4347	6603.827395828185	6
0	4350	6606.173838576697	7
0	4353	6606.524195387935	6
0	4355	6610.605686019444	5
0	4357	6616.460697585273	6
0	4360	6630.26852518774	7
0	4363	6635.58965951944	6
0	4365	6637.021689169598	7
0	4368	6638.024005130807	6
0	4370	6643.728507640501	7
0	4373	6644.954676052128	6
0	4375	6646.981773243887	5
0	4377	6652.275363817831	6
0	4380	6653.307005240276	7
0	4383	6656.622312019993	6
0	4385	6676.20233260928	5
0	4387	6684.905364399976	6
0	4390	6690.345740399435	5
0	4392	6691.101515114338	6
0	4395	6696.845621764386	5
0	4397	6696.89411432407	4
0	4399	6698.555677999454	3
0	4401	6708.770251711769	4
0	4404	6708.829323019461	5
0	4407	6713.41895304026	4
0	4409	6719.808626668159	3
0	4411	6722.868653944	4
0	4414	6731.100743251142	5
0	4417	6735.832393210346	6
0	4420	6739.947865510444	7
0	4423	6740.968312978483	6
0	4425	6744.149318192388	7
0	4428	6753.285702114029	6
0	4430	6754.3119063953	5
0	4432	6754.373128487216	6
0	4435	6756.087960591518	5
0	4437	6758.564394612699	4
0	4439	6762.043384135545	3
0	4441	6764.366147269232	4
0	4444	6777.295198037437	5
0	4447	6780.60536777751	4
0	4449	6780.780589600722	5
0	4452	6781.752372796983	4
0	4454	6790.968332323581	5
0	4457	6796.45622005176	4
0	4459	6805.603773726141	5
0	4462	6806.336488749953	4
0	4464	6806.628897282032	3
0	4466	6808.207128149885	4
0	4469	6812.108923343065	5
0	4472	6814.613592472397	4
0	4474	6816.466238727071	5
0	4477	6820.772609796768	6
0	4480	6826.197439223378	5
0	4482	6834.94521667847	6
0	4485	6845.850571674491	7
0	4488	6845.878932346592	8
0	4490	6849.945414211027	7
0	4493	6850.83756542029	6
0	4495	6858.724546013243	7
0	4498	6862.847799085656	6
0	4500	6878.298768555505	5
0	4502	6891.511500953455	4
0	4504	6892.120272310814	5
0	4507	6892.98627413491	6
0	4510	6894.770806331851	5
0	4512	6896.305049070141	6
0	4515	6899.807616663105	7
0	4518	6901.562237553872	6
0	4520	6903.27567127483	7
0	4523	6914.153397984988	6
0	4525	6917.394585932282	5
0	4527	6918.109963633762	4
0	4529	6923.645145556754	3
0	4531	6928.204791477421	4
0	4534	6934.150461612668	5
0	4537	6937.131461947786	6
0	4540	6937.561965105493	5
0	4542	6939.397614374562	6
0	4545	6945.461464667086	7
0	4548	6954.578912949953	6
0	4550	6955.748518157588	5
0	4552	6957.228849580941	6
0	4555	6958.740046857112	5
0	4557	6963.735215783513	4
0	4559	6970.627947428457	5
0	4562	6974.129105334189	6
0	4565	6983.896998672622	5
0	4567	6993.659852605713	6
0	4570	6997.931968274755	5
0	4572	7010.697356426403	4
0	4574	7020.116512328005	5
0	4577	7022.388420544488	6
0	4580	7026.624082759444	7
0	4583	7030.148450855607	8
0	4585	7039.525729113538	7
0	4588	7042.189842558696	6
0	4590	7046.224337409687	7
0	4593	7046.357453432557	6
0	4595	7048.837730341117	7
0	4598	7054.979935349605	6
0	4600	7059.559951670237	7
0	4603	7072.953488501822	8
0	4605	7074.617402504651	7
0	4608	7079.147950401374	8
0	4610	7082.919617749536	9
0	4612	7094.170657963692	8
0	4615	7094.717440301141	7
0	4618	7094.995314322928	8
0	4620	7095.932789331644	7
0	4623	7095.988701370657	8
0	4625	7098.169041494524	9
0	4627	7099.162249242547	8
0	4630	7106.599021306602	7
0	4633	7107.275162121583	6
0	4635	7108.337744677248	7
0	4638	7118.352136688082	6
0	4640	7135.933751262621	5
0	4642	7137.135738696327	4
0	4644	7146.843163878852	3
0	4646	7147.913772508203	2
0	4648	7150.474712459497	1
0	4650	7162.416468003499	2
0	4653	7168.418297953925	1
0	4655	7170.085755717681	2
0	4658	7172.258247056247	3
0	4661	7173.028304067071	4
0	4664	7173.379685780049	5
0	4667	7174.144316761511	6
0	4670	7176.519967867423	7
0	4673	7179.377087665722	6
0	4675	7180.719242348634	5
0	4677	7184.500718821735	4
0	4679	7189.02060460905	3
0	4681	7194.3033708744	2
0	4683	7209.099743405468	1
0	4685	7220.86662291885	2
0	4688	7221.03592821069	3
0	4691	7231.272567256591	4
0	4694	7232.303201373081	3
0	4696	7235.098079103664	4
0	4699	7239.345243263179	5
0	4702	7239.64463464107	6
0	4705	7240.92690685457	7
0	4708	7242.385679130028	8
0	4710	7245.513391892369	9
0	4712	7249.786824476519	10
0	4714	7260.835926314161	9
0	4717	7263.273955802544	10
0	4719	7264.779408873426	9
0	4722	7264.914455346075	10
0	4724	7265.79178207039	9
0	4727	7268.118738180372	8
0	4730	7269.267287590841	7
0	4733	7269.795805749388	8
0	4735	7269.951548623684	7
0	4738	7271.54668406488	6
0	4740	7274.122346992841	5
0	4742	7277.689936465559	6
0	4745	7283.458450917894	5
0	4747	7291.285872622717	6
0	4750	7295.153935939845	5
0	4752	7295.433511237802	4
0	4754	7295.574235560008	5
0	4757	7296.126274986127	4
0	4759	7297.14975991656	3
0	4761	7303.784560211624	4
0	4764	7312.020451115952	5
0	4767	7321.465230640921	6
0	4770	7331.383795875485	7
0	4773	7333.609898651835	8
0	4775	7342.172896683505	7
0	4778	7344.67761178702	6
0	4780	7344.848984401467	5
0	4782	7357.93430887523	4
0	4784	7361.078290045548	5
0	4787	7361.574259670476	6
0	4790	7363.674345630731	5
0	4792	7365.920266148096	4
0	4794	7374.070407012131	3
0	4796	7376.394645195465	4
0	4799	7377.21119689365	5
0	4802	7378.924627892068	6
0	4805	7389.614575415231	7
0	4808	7396.47061522892	8
0	4810	7397.797322636077	7
0	4813	7401.336060629856	8
0	4815	7403.808129332481	7
0	4818	7408.083645033319	8
0	4820	7409.414611148251	9
0	4822	7413.542861849614	8
0	4825	7419.255846559098	7
0	4828	7420.372444267709	6
0	4830	7421.530207450775	5
0	4832	7423.923295346191	4
0	4834	7425.786186979916	3
0	4836	7426.262467561709	4
0	4839	7430.649383990932	5
0	4842	7438.128536902151	4
0	4844	7448.416939405278	3
0	4846	7455.976105688775	4
0	4849	7463.51654639846	5
0	4852	7467.92574335152	6
0	4855	7468.934158756409	5
0	4857	7471.126927842623	6
0	4860	7482.797120692619	7
0	4863	7485.93046829654	6
0	4865	7487.075028973177	5
0	4867	7497.253298609481	4
0	4869	7497.355728196229	3
0	4871	7504.500671805962	2
0	4873	7507.124156956649	3
0	4876	7510.036123176447	4
0	4879	7512.648492455325	5
0	4882	7514.132823688693	6
0	4885	7518.627076151103	5
0	4887	7521.306332463883	4
0	4889	7526.24348063621	3
0	4891	7533.044235792611	4
0	4894	7534.59667327136	5
0	4897	7535.036327121745	6
0	4900	7538.855977726643	5
0	4902	7539.445746058641	6
0	4905	7541.2887711606	5
0	4907	7550.589005057201	4
0	4909	7550.848182070943	5
0	4912	7551.181294086091	4
0	4914	7552.634799262621	5
0	4917	7552.995699513986	6
0	4920	7554.044786201098	7
0	4923	7554.908288670588	6
0	4925	7554.963347441914	5
0	4927	7562.246113047913	6
0	4930	7566.345415506197	7
0	4933	7569.557585109244	8
0	4935	7571.059298340862	7
0	4938	7578.015815747114	8
0	4940	7579.345697192366	7
0	4943	7580.825819512864	6
0	4945	7581.224506112541	5
0	4947	7587.655162220149	4
0	4949	7590.478680476724	5
0	4952	7593.2377522396	6
0	4955	7603.662054492067	5
0	4957	7611.801192866434	6
0	4960	7613.575115355012	7
0	4963	7615.080304961773	6
0	4965	7636.664846971664	5
0	4967	7637.164125442719	4
0	4969	7641.860616256522	3
0	4971	7645.218038564434	4
0	4974	7645.471549800377	3
0	4976	7653.788986918205	4
0	4979	7663.744214474017	5
0	4982	7669.060091460243	6
0	4985	7669.93315312955	5
0	4987	7673.162561924407	6
0	4990	7681.126861671634	5
0	4992	7682.489561091172	6
0	4995	7683.028867923876	5
0	4997	7684.956726162436	4
0	4999	7699.736123425914	5
0	5002	7699.821127736486	4
0	5004	7705.284125530206	5
0	5007	7707.307340036935	6
0	5010	7711.138118934233	5
0	5012	7711.872668042197	6
0	5015	7714.637679716195	7
0	5018	7714.820993537146	6
0	5020	7717.721957074401	5
0	5022	7717.756828953826	4
0	5024	7723.435255811495	3
0	5026	7733.772209427331	2
0	5028	7733.939852974422	3
0	5031	7736.155069393567	4
0	5034	7743.240005880121	5
0	5037	7757.706304191406	6
0	5040	7758.481727014297	5
0	5042	7764.183000988962	6
0	5045	7765.064924591196	5
0	5047	7768.309998249066	4
0	5049	7773.373434090893	3
0	5051	7778.386414707076	2
0	5053	7793.516067152112	1
0	5055	7796.169853331533	2
0	5058	7811.72673599043	1
0	5060	7813.870939077818	2
0	5063	7814.636172774962	3
0	5066	7816.011561069473	4
0	5069	7822.188128578902	5
0	5072	7823.166592366664	4
0	5074	7826.909177094902	5
0	5077	7826.973291929653	4
0	5079	7828.238416800593	5
0	5082	7834.453395367576	4
0	5084	7836.238900801513	3
0	5086	7838.101596617871	2
0	5088	7844.660667862302	1
0	5090	7847.564653139612	2
0	5093	7847.827715534129	1
0	5095	7850.936618117032	2
0	5098	7854.095176562041	3
0	5101	7855.17655880143	4
0	5104	7856.993067191888	3
0	5106	7873.022219926198	4
0	5109	7877.003288875025	5
0	5112	7878.196519152274	4
0	5114	7880.37373721479	5
0	5117	7881.797746651068	4
0	5119	7883.606535653941	5
0	5122	7883.797531529833	6
0	5125	7888.589704439983	5
0	5127	7889.474278179825	6
0	5130	7891.16505053427	5
0	5132	7892.538973411628	6
0	5135	7892.581810292407	5
0	5137	7906.325865381279	6
0	5140	7907.282131738044	7
0	5143	7907.979121366654	6
0	5145	7912.034542229644	5
0	5147	7914.300654589007	4
0	5149	7922.631570110263	5
0	5152	7925.788323138774	6
0	5155	7926.05484412768	5
0	5157	7930.294111410083	4
0	5159	7944.08105836635	5
0	5162	7945.049569621946	4
0	5164	7945.838257516221	3
0	5166	7972.570933092209	4
0	5169	7982.468605844423	3
0	5171	7985.402285483872	2
0	5173	7991.557050618648	3
0	5176	7994.295436220226	4
0	5179	7999.910840037585	3
0	5181	8003.869483172161	4
0	5184	8023.423920166383	3
0	5186	8024.755127725206	2
0	5188	8025.079530255779	3
0	5191	8026.302932523986	2
0	5193	8030.274767531646	3
0	5196	8040.120896658678	4
0	5199	8053.763132945441	5
0	5202	8057.747139071201	6
0	5205	8058.92095612354	5
0	5207	8064.669329301271	6
0	5210	8067.160443434333	5
0	5212	8070.18931857639	4
0	5214	8074.936594298263	3
0	5216	8080.662601116393	2
0	5218	8088.51143889435	3
0	5221	8093.876199231349	4
0	5224	8094.264791892095	3
0	5226	8100.464024857922	2
0	5228	8104.704833653537	1
0	5230	8105.411547930536	2
0	5233	8117.503475747773	1
0	5235	8123.930770316275	2
0	5238	8131.167151316796	3
0	5241	8133.854661774931	4
0	5244	8135.491449971404	3
0	5246	8141.295720129772	4
0	5249	8142.665701584849	5
0	5252	8145.98307349987	6
0	5255	8146.60522589611	7
0	5258	8154.277233547688	6
0	5260	8154.27989450206	5
0	5262	8156.433619320317	6
0	5265	8161.648541211215	7
0	5268	8162.812973031625	6
0	5270	8162.84832390358	7
0	5273	8163.112205284781	6
0	5275	8164.651261360816	5
0	5277	8168.66693535451	4
0	5279	8179.638711369677	5
0	5282	8183.265766785307	4
0	5284	8188.385911958179	5
0	5287	8189.905066048611	6
0	5290	8190.065187700144	7
0	5293	8197.183873805416	8
0	5295	8198.498765930316	7
0	5298	8199.600427265214	6
0	5300	8204.207522216639	7
0	5303	8205.086594236828	8
0	5305	8207.455887695096	7
0	5308	8207.679626443732	8
0	5310	8210.543836999337	7
0	5313	8211.0105587563	6
0	5315	8214.870233616562	5
0	5317	8217.889399201774	6
0	5320	8221.380032238382	7
0	5323	8221.398852310426	6
0	5325	8225.358078101703	7
0	5328	8225.867932215693	8
0	5330	8233.022324328216	9
0	5332	8233.814057057229	8
0	5335	8234.462492808794	9
0	5337	8235.292510552521	8
0	5340	8235.329789024637	9
0	5342	8236.263617552551	10
0	5344	8240.042867611155	9
0	5347	8240.851772890615	10
0	5349	8241.0967648898	11
0	5351	8241.18422272556	10
0	5354	8246.465039948092	11
0	5356	8250.108033876387	10
0	5359	8251.203655070365	9
0	5362	8252.149308776271	10
0	5364	8252.272064853664	11
0	5366	8255.595164998398	10
0	5369	8255.841075666521	11
0	5371	8261.365598171217	10
0	5374	8265.520360929997	9
0	5377	8267.373180988866	8
0	5380	8268.996306393615	7
0	5383	8271.054879552175	6
0	5385	8281.289966818211	7
0	5388	8284.597725278121	8
0	5390	8288.431421814872	7
0	5393	8288.701515545239	8
0	5395	8289.165111912514	7
0	5398	8292.174530750649	6
0	5400	8292.735662113974	7
0	5403	8294.658978271216	8
0	5405	8295.767233640833	7
0	5408	8297.290207198993	8
0	5410	8307.44019097749	9
0	5412	8307.986769053423	10
0	5414	8311.633989051883	11
0	5416	8314.328827792505	10
0	5419	8330.847800707795	9
0	5422	8333.748861127933	10
0	5424	8335.291132420112	9
0	5427	8344.178966093284	8
0	5430	8345.133763866584	9
0	5432	8346.46270726666	8
0	5435	8348.546582294634	9
0	5437	8349.658459732013	10
0	5439	8350.372161198951	11
0	5441	8350.817482434143	10
0	5444	8358.525310932468	9
0	5447	8364.029827763972	10
0	5449	8365.982435002229	11
0	5451	8366.676379938703	12
0	5453	8369.251146721924	11
0	5456	8370.001346261378	12
0	5458	8370.040190512689	13
0	5460	8370.067263532708	14
0	5462	8374.985968842965	15
0	5464	8391.350653896188	14
0	5467	8397.644055142299	13
0	5470	8398.579769582073	14
0	5472	8421.116385094828	13
0	5475	8424.928522316884	12
0	5478	8426.403757045727	11
0	5481	8427.442133644847	12
0	5483	8427.801947511635	13
0	5485	8432.764805280766	14
0	5487	8436.117118652556	15
0	5489	8437.34024051798	16
0	5491	8443.5215736447	17
0	5493	8448.076192218341	16
0	5496	8448.113184580327	15
0	5499	8451.386556341594	14
0	5502	8451.401203022527	15
0	5504	8453.356658051442	16
0	5506	8453.672191474648	17
0	5508	8457.161484454948	16
0	5511	8465.36149231979	17
0	5513	8469.699394052297	18
0	5515	8476.544849215837	19
0	5517	8476.711443914841	20
0	5519	8481.45569357348	19
0	5522	8482.037111061068	18
0	5525	8484.226771944021	17
0	5528	8485.103261682708	16
0	5531	8492.463834020714	17
0	5533	8495.476755162852	16
0	5536	8495.702156226467	15
0	5539	8498.8937015942	16
0	5541	8498.916067492871	17
0	5543	8499.899468722274	18
0	5545	8500.913412134193	19
0	5547	8501.093818958618	20
0	5549	8501.42805797513	19
0	5552	8503.455329055969	18
0	5555	8505.066245695379	17
0	5558	8508.503965560596	16
0	5561	8510.356622856422	15
0	5564	8511.551511513662	14
0	5567	8513.749119024213	15
0	5569	8515.623922982534	16
0	5571	8517.796920482297	17
0	5573	8519.529929773931	16
0	5576	8520.593122634356	15
0	5579	8525.130410826055	16
0	5581	8528.042888862984	15
0	5584	8528.634141897334	14
0	5587	8539.469317270739	13
0	5590	8542.024505967581	14
0	5592	8545.651846325054	13
0	5595	8547.120173312463	12
0	5598	8549.069572227491	11
0	5601	8552.080531016164	10
0	5604	8552.235078477499	11
0	5606	8553.021812099537	12
0	5608	8553.253777216727	11
0	5611	8555.15644051842	10
0	5614	8556.147337891705	11
0	5616	8557.690303505576	10
0	5619	8558.434159454653	9
0	5622	8559.204440048024	10
0	5624	8563.65681209671	9
0	5627	8565.522742666963	8
0	5630	8573.835149082531	9
0	5632	8575.832917629305	8
0	5635	8583.300183805087	7
0	5638	8583.457623117129	6
0	5640	8587.090225246116	7
0	5643	8589.055677359189	6
0	5645	8593.100412566269	7
0	5648	8595.868936593878	8
0	5650	8598.574072982301	9
0	5652	8599.213619427863	8
0	5655	8601.258261235612	9
0	5657	8603.620278109216	8
0	5660	8604.869834947727	7
0	5663	8606.11818451868	6
0	5665	8613.57019898938	5
0	5667	8615.026361787603	4
0	5669	8619.885222439176	5
0	5672	8620.467081175053	4
0	5674	8625.976051648056	5
0	5677	8631.616008952844	6
0	5680	8638.846939943912	7
0	5683	8639.737725027695	6
0	5685	8643.162109182818	5
0	5687	8645.832432649734	4
0	5689	8646.941910258508	3
0	5691	8656.158946836286	4
0	5694	8656.48300158719	3
0	5696	8663.777959328438	4
0	5699	8670.266276519724	3
0	5701	8677.03846799566	4
0	5704	8682.890485033238	5
0	5707	8687.194554734141	6
0	5710	8688.034817580319	5
0	5712	8689.727761203413	4
0	5714	8692.535340452809	5
0	5717	8703.308675074602	4
0	5719	8704.333534453024	5
0	5722	8704.628906072621	6
0	5725	8705.962972787575	5
0	5727	8707.462956604361	6
0	5730	8710.017424847508	7
0	5733	8711.615851158572	8
0	5735	8716.555218223707	7
0	5738	8718.696178643688	6
0	5740	8737.872840140124	5
0	5742	8738.13764175559	4
0	5744	8750.849860493662	5
0	5747	8751.902044824973	4
0	5749	8757.448984754295	5
0	5752	8762.153396396491	4
0	5754	8762.77285063752	5
0	5757	8763.936153855326	6
0	5760	8772.149885384645	7
0	5763	8777.713088134324	8
0	5765	8779.466862323993	7
0	5768	8782.752616354295	6
0	5770	8783.25909287412	5
0	5772	8787.174721597305	6
0	5775	8790.070250306932	5
0	5777	8793.754219807213	6
0	5780	8794.307447183363	5
0	5782	8804.044955390611	6
0	5785	8804.511864480772	7
0	5788	8806.086286454609	6
0	5790	8810.576290463506	5
0	5792	8828.921984376097	4
0	5794	8829.981268759849	5
0	5797	8833.515171788672	6
0	5800	8839.376065023376	7
0	5803	8843.582895466215	6
0	5805	8843.75160377043	5
0	5807	8846.563410323267	6
0	5810	8849.776192932398	7
0	5813	8850.757999207245	6
0	5815	8855.111905044517	5
0	5817	8858.940006830251	6
0	5820	8862.669458908932	7
0	5823	8863.875910494302	6
0	5825	8869.294376683001	5
0	5827	8879.221559694011	6
0	5830	8892.50474756411	7
0	5833	8893.766412395015	6
0	5835	8897.269312718031	5
0	5837	8904.321624609732	4
0	5839	8905.472484989288	5
0	5842	8908.533242712615	4
0	5844	8925.751543354081	3
0	5846	8931.169796799131	4
0	5849	8942.968697146314	3
0	5851	8944.056182377439	2
0	5853	8944.644626503934	3
0	5856	8950.444622095996	2
0	5858	8952.816611740362	1
0	5860	8955.769454975633	2
0	5863	8956.706686242872	3
0	5866	8961.968024651302	4
0	5869	8975.252444679048	3
0	5871	8985.418061235817	4
0	5874	8991.190954824882	3
0	5876	8991.329412585754	4
0	5879	9009.344569422297	3
0	5881	9027.806919552514	4
0	5884	9034.840062990834	3
0	5886	9046.66094920716	2
0	5888	9049.466753364171	1
0	5890	9073.235865489697	2
0	5893	9073.329234467832	1
0	5895	9083.782621529394	2
0	5898	9099.36214548001	3
0	5901	9100.941649802243	2
0	5903	9104.403308004469	1
0	5905	9107.179570626896	2
0	5908	9112.325578151223	3
0	5911	9115.476933552208	2
0	5913	9121.748575775196	3
0	5916	9125.911341876546	2
0	5918	9130.021825556621	3
0	5921	9135.576668507411	2
0	5923	9146.962234450973	1
0	5925	9164.314129428704	2
0	5928	9166.05627714432	3
0	5931	9167.989916278725	4
0	5934	9175.120042845822	5
0	5937	9175.391376715789	6
0	5940	9177.505422248631	5
0	5942	9178.639933818716	4
0	5944	9184.389312924279	3
0	5946	9187.194228652492	4
0	5949	9191.504099682019	3
0	5951	9206.514412215114	4
0	5954	9210.089401389055	5
0	5957	9213.359519297133	6
0	5960	9219.884249513905	5
0	5962	9220.748606175444	4
0	5964	9222.80896399435	5
0	5967	9228.432073537807	4
0	5969	9228.457713403569	5
0	5972	9234.263940839154	6
0	5975	9245.439832954887	5
0	5977	9251.801333001009	4
0	5979	9258.316691207199	3
0	5981	9269.091877304368	2
0	5983	9277.514300841129	3
0	5986	9280.138513623777	4
0	5989	9280.806593206964	3
0	5991	9295.015235093238	2
0	5993	9300.799907163349	1
0	5995	9321.869765766365	2
0	5998	9322.864349465086	3
0	6001	9329.349645763103	2
0	6003	9330.131853059124	3
0	6006	9332.601799538808	2
0	6008	9350.838241092683	3
0	6011	9351.039383924286	4
0	6014	9351.695406937315	5
0	6017	9352.202309791305	4
0	6019	9352.372781770084	5
0	6022	9352.864213960366	4
0	6024	9365.18606962872	5
0	6027	9370.746650067798	6
0	6030	9371.160084785022	7
0	6033	9373.098848503925	6
0	6035	9375.302969704263	7
0	6038	9389.015248262296	6
0	6040	9391.08053860384	5
0	6042	9406.439553788503	4
0	6044	9407.952838054338	5
0	6047	9422.544652542486	4
0	6049	9423.665028075416	5
0	6052	9426.455144544144	4
0	6054	9438.073589634295	5
0	6057	9445.101179560481	6
0	6060	9449.504914905645	7
0	6063	9450.751096059055	6
0	6065	9451.032648687615	7
0	6068	9453.309966185212	8
0	6070	9455.158410814693	7
0	6073	9455.468431990472	6
0	6075	9459.197430399891	7
0	6078	9465.944131947125	8
0	6080	9467.781010107925	7
0	6083	9467.85269298273	8
0	6085	9468.801381389235	7
0	6088	9469.076446617005	6
0	6090	9469.791410398601	5
0	6092	9470.177463148125	4
0	6094	9470.510843443326	5
0	6097	9470.531033691283	6
0	6100	9473.152831292863	7
0	6103	9476.379017757091	6
0	6105	9479.03114816113	7
0	6108	9485.84882851893	8
0	6110	9487.130261984385	9
0	6112	9497.319535382887	8
0	6115	9502.992816343848	7
0	6118	9503.896962453063	8
0	6120	9507.599367235811	7
0	6123	9508.182136186743	6
0	6125	9513.650516564069	7
0	6128	9513.837847110181	6
0	6130	9520.056565338419	5
0	6132	9522.421077600358	6
0	6135	9524.617483028154	7
0	6138	9525.029719974216	8
0	6140	9527.055540515106	9
0	6142	9529.035829130728	8
0	6145	9534.151975934612	7
0	6148	9534.391155298667	8
0	6150	9536.747282556417	7
0	6153	9536.952205058554	8
0	6155	9540.39460308715	9
0	6157	9544.807073365664	8
0	6160	9545.87152271553	9
0	6162	9548.199667315706	10
0	6164	9549.526931682902	9
0	6167	9554.601991049156	8
0	6170	9556.500968857338	7
0	6173	9562.187718145104	8
0	6175	9564.024496660243	9
0	6177	9567.479083126508	10
0	6179	9578.320113726025	11
0	6181	9583.337613208353	12
0	6183	9585.370237756961	11
0	6186	9590.253183618413	12
0	6188	9591.92652966339	11
0	6191	9593.392411942473	10
0	6194	9595.16053274766	9
0	6197	9603.515736716087	10
0	6199	9610.045574750543	9
0	6202	9610.196550178682	8
0	6205	9614.63030444944	9
0	6207	9619.51258513026	10
0	6209	9620.181821400762	9
0	6212	9621.721129546895	10
0	6214	9634.298810570429	9
0	6217	9635.578423137815	8
0	6220	9636.090598063298	7
0	6223	9637.431378514869	6
0	6225	9640.275381982612	7
0	6228	9643.50203908361	6
0	6230	9648.234320477523	7
0	6233	9650.534116432187	6
0	6235	9655.715906511315	5
0	6237	9656.03298153103	4
0	6239	9658.620506056149	3
0	6241	9662.014419642066	4
0	6244	9663.147350308683	3
0	6246	9674.008161815488	4
0	6249	9675.14062004723	5
0	6252	9681.964356127428	6
0	6255	9682.070083984409	5
0	6257	9683.064749063805	4
0	6259	9683.905610674982	5
0	6262	9688.643793400348	6
0	6265	9693.420848931465	5
0	6267	9693.781241164221	6
0	6270	9701.161532215151	5
0	6272	9702.344982234745	4
0	6274	9709.379926700243	3
0	6276	9709.723117476319	2
0	6278	9715.469719664906	3
0	6281	9717.021642079954	4
0	6284	9722.272570050149	5
0	6287	9723.25111937083	4
0	6289	9724.141443847241	5
0	6292	9725.949350677792	4
0	6294	9727.858333694772	5
0	6297	9728.457515042426	4
0	6299	9728.51946644734	5
0	6302	9730.538915251109	6
0	6305	9733.483379120185	7
0	6308	9734.28519431585	6
0	6310	9734.648167061755	7
0	6313	9735.40134431193	8
0	6315	9736.28273010927	7
0	6318	9740.633045145811	8
0	6320	9744.940529981348	7
0	6323	9746.915174841332	6
0	6325	9750.867532202086	7
0	6328	9753.846270983222	6
0	6330	9760.930640039667	7
0	6333	9767.841949175444	6
0	6335	9770.981307506314	5
0	6337	9773.671653043379	4
0	6339	9774.935133318407	3
0	6341	9785.153839588869	2
0	6343	9805.843899810918	1
0	6345	9808.612146626548	2
0	6348	9826.792526833261	3
0	6351	9828.050539425269	4
0	6354	9828.911292536226	5
0	6357	9829.481118525796	6
0	6360	9831.923164430805	7
0	6363	9839.024180371128	8
0	6365	9839.863382297916	7
0	6368	9840.359450351557	6
0	6370	9840.429274742171	5
0	6372	9845.35555024147	6
0	6375	9848.288414240701	5
0	6377	9850.823090580037	4
0	6379	9853.512876751041	3
0	6381	9858.438552383011	2
0	6383	9869.161612535843	3
0	6386	9873.522161940886	2
0	6388	9875.542952215132	3
0	6391	9876.75205783137	4
0	6394	9876.97995501377	3
0	6396	9877.848948905852	4
0	6399	9879.68860009035	5
0	6402	9886.969028482552	4
0	6404	9898.96064441438	3
0	6406	9899.03022852017	4
0	6409	9901.37855974045	5
0	6412	9902.392002884543	6
0	6415	9905.837191654973	7
0	6418	9914.668299741859	8
0	6420	9917.385240056456	9
0	6422	9924.011678630238	8
0	6425	9925.551337478515	7
0	6428	9934.830989572515	6
0	6430	9937.037654504888	5
0	6432	9938.912897461854	6
0	6435	9940.962569883229	5
0	6437	9951.967642628517	6
0	6440	9953.140696127515	5
0	6442	9962.513774237276	6
0	6445	9974.416434343171	5
0	6447	9975.999767855434	6
0	6450	9987.518503102635	5
0	6452	9992.35379959568	4
0	6454	9994.975680353922	5
0	6457	9999.318927640271	4
0	6459	10006.493734971909	5
0	6462	10014.858899669514	4
0	6464	10015.177636899463	5
0	6467	10017.98429170121	6
0	6470	10020.548493167	5
0	6472	10021.998096492197	4
0	6474	10023.120474279137	3
0	6476	10028.707173889836	2
0	6478	10029.736963930813	3
0	6481	10029.917766097823	4
0	6484	10036.986758268488	5
0	6487	10045.103294070219	6
0	6490	10047.091673054198	5
0	6492	10047.793574152262	6
0	6495	10047.943185284751	7
0	6498	10049.998400734262	6
0	6500	10050.658911670006	7
0	6503	10051.009240950235	6
0	6505	10053.058393733499	5
0	6507	10053.618855724353	6
0	6510	10064.55604224355	5
0	6512	10067.970888575104	4
0	6514	10071.561675197714	3
0	6516	10079.741591232458	4
0	6519	10083.173499978054	5
0	6522	10083.889333010898	6
0	6525	10087.231240650731	7
0	6528	10090.784288218144	8
0	6530	10095.927958661102	7
0	6533	10097.005176963163	6
0	6535	10097.972105102346	5
0	6537	10099.293855324031	6
0	6540	10104.222002223203	5
0	6542	10107.812650546044	4
0	6544	10109.024409502023	3
0	6546	10111.057516055159	4
0	6549	10112.132594621252	5
0	6552	10112.630541100691	6
0	6555	10117.134292230407	5
0	6557	10117.270494319383	4
0	6559	10117.919065165534	3
0	6561	10123.804042145286	2
0	6563	10125.784403485569	3
0	6566	10128.666040459396	4
0	6569	10128.957111380578	5
0	6572	10134.485524428063	6
0	6575	10141.917774542044	7
0	6578	10146.030852315177	6
0	6580	10146.295124011284	5
0	6582	10152.473907914737	4
0	6584	10166.968078707132	5
0	6587	10167.611451404061	6
0	6590	10168.074489992467	7
0	6593	10168.989754152866	6
0	6595	10175.31378709474	5
0	6597	10182.469976140845	6
0	6600	10183.75067138681	7
0	6603	10185.546676516484	8
0	6605	10185.645278305759	9
0	6607	10187.030933709	8
0	6610	10189.963147313621	9
0	6612	10195.747943735804	10
0	6614	10212.705389561778	11
0	6616	10221.987150542475	10
0	6619	10222.750835996459	9
0	6622	10231.3532453559	8
0	6625	10231.621137784509	7
0	6628	10234.995388216634	6
0	6630	10237.317752442155	7
0	6633	10237.801272515715	6
0	6635	10251.511076198973	5
0	6637	10255.87704244199	4
0	6639	10264.164480343121	5
0	6642	10264.551994606695	6
0	6645	10265.610825713304	7
0	6648	10265.792856866955	6
0	6650	10270.856380470468	7
0	6653	10270.911511861099	6
0	6655	10275.802638391423	7
0	6658	10277.079091485859	8
0	6660	10278.789707464137	9
0	6662	10280.888439155422	10
0	6664	10281.996729731023	9
0	6667	10285.095024055256	8
0	6670	10288.570464568363	7
0	6673	10290.298019552717	8
0	6675	10306.315133081205	9
0	6677	10306.325981584023	8
0	6680	10306.435038092651	7
0	6683	10307.168037714655	8
0	6685	10312.378821081708	7
0	6688	10314.718245202033	6
0	6690	10317.216254509132	7
0	6693	10317.556134405225	6
0	6695	10318.765481636723	7
0	6698	10320.034907258171	8
0	6700	10323.04249319639	7
0	6703	10323.842444732184	6
0	6705	10325.933910085611	7
0	6708	10331.563413650376	6
0	6710	10334.646086667315	5
0	6712	10335.047550971699	6
0	6715	10344.467471453847	5
0	6717	10347.012156223686	6
0	6720	10355.435446023134	5
0	6722	10355.592132922479	4
0	6724	10361.17437592446	5
0	6727	10362.233342517858	6
0	6730	10362.559867608964	5
0	6732	10363.751227836915	4
0	6734	10364.809291046323	5
0	6737	10367.774460241124	4
0	6739	10371.616227441702	5
0	6742	10373.856002117143	6
0	6745	10381.037651328419	5
0	6747	10394.774024022839	6
0	6750	10394.794721907867	7
0	6753	10396.424595193535	6
0	6755	10396.874328707209	7
0	6758	10398.154722143236	8
0	6760	10399.01594646757	9
0	6762	10404.442448319946	10
0	6764	10404.721075609143	9
0	6767	10405.18285021013	8
0	6770	10408.19886913034	9
0	6772	10411.454358583739	8
0	6775	10415.348732663518	7
0	6778	10418.743348382473	8
0	6780	10420.031365410823	7
0	6783	10428.812851056525	8
0	6785	10429.89770488359	7
0	6788	10431.318095914219	8
0	6790	10434.193424599966	9
0	6792	10435.978041135316	8
0	6795	10440.988539516188	7
0	6798	10444.815144265796	8
0	6800	10447.023403666154	7
0	6803	10453.599431043176	6
0	6805	10462.103482886772	7
0	6808	10462.770176570302	6
0	6810	10463.312442153931	7
0	6813	10468.037876412825	8
0	6815	10473.175167723962	7
0	6818	10475.577623539818	8
0	6820	10489.638399628976	7
0	6823	10494.214122781097	6
0	6825	10496.417151074791	5
0	6827	10504.72765152751	6
0	6830	10508.968550554728	7
0	6833	10511.632543651759	8
0	6835	10511.704210072456	9
0	6837	10517.506073703887	8
0	6840	10518.651023153476	7
0	6843	10519.780864786903	8
0	6845	10526.917553589015	7
0	6848	10529.211424416089	6
0	6850	10530.2349867166	7
0	6853	10531.992575405152	6
0	6855	10539.292580895563	5
0	6857	10543.06812296298	6
0	6860	10545.214806259696	5
0	6862	10546.280991684273	6
0	6865	10546.48319723657	5
0	6867	10548.878682785875	4
0	6869	10549.829052533509	5
0	6872	10549.971131984682	4
0	6874	10550.4369437028	5
0	6877	10551.398378732152	6
0	6880	10552.868865139534	7
0	6883	10557.669098940482	6
0	6885	10559.64256153499	7
0	6888	10562.305399354233	6
0	6890	10563.600374428098	5
0	6892	10564.075646410127	4
0	6894	10565.689512919891	5
0	6897	10568.351211155758	6
0	6900	10570.012989670619	5
0	6902	10570.710645338449	6
0	6905	10573.18530846056	5
0	6907	10584.493656983167	4
0	6909	10585.286109087291	3
0	6911	10588.023606746026	2
0	6913	10588.780877671603	3
0	6916	10588.786423484752	4
0	6919	10591.150332106249	3
0	6921	10592.093421417224	4
0	6924	10604.78096531645	5
0	6927	10605.423422149378	4
0	6929	10606.125332011939	3
0	6931	10614.14567858647	2
0	6933	10615.737481990069	3
0	6936	10625.063935194202	2
0	6938	10629.638455600787	3
0	6941	10636.460338838674	4
0	6944	10636.607983851136	3
0	6946	10641.242485531594	4
0	6949	10665.720355945255	5
0	6952	10673.732090539658	6
0	6955	10675.830778919774	7
0	6958	10676.3360991112	8
0	6960	10679.971348882046	9
0	6962	10686.587193209809	8
0	6965	10687.400079981578	7
0	6968	10691.531636801792	8
0	6970	10693.044496062197	7
0	6973	10693.757381926028	6
0	6975	10701.665806838857	7
0	6978	10701.742059656633	6
0	6980	10705.472358895553	5
0	6982	10706.188175365906	4
0	6984	10706.950195745432	5
0	6987	10715.20032628165	6
0	6990	10716.834778778616	5
0	6992	10719.425784364475	6
0	6995	10722.417146476723	7
0	6998	10724.991224553296	6
0	7000	10725.749710131849	7
0	7003	10731.383737363593	8
0	7005	10732.662630319143	7
0	7008	10732.741948945717	8
0	7010	10739.16866998005	9
0	7012	10742.917963329837	10
0	7014	10748.577186171358	11
0	7016	10750.086064664279	12
0	7018	10753.989170203581	13
0	7020	10756.045492655983	12
0	7023	10756.501957681008	13
0	7025	10760.73569787956	14
0	7027	10764.027299661379	15
0	7029	10765.067992866725	14
0	7032	10770.143239582867	13
0	7035	10770.246825624191	12
0	7038	10772.509990907914	11
0	7041	10784.363143536412	12
0	7043	10801.933679097948	13
0	7045	10802.36369001467	12
0	7048	10803.341416560593	11
0	7051	10804.511559975919	10
0	7054	10812.19533393154	9
0	7057	10813.280343037919	10
0	7059	10813.369618214493	9
0	7062	10814.234482552217	8
0	7065	10817.512452183069	7
0	7068	10819.289249679972	6
0	7070	10826.168931116864	5
0	7072	10826.595068591277	6
0	7075	10830.703815455918	5
0	7077	10831.420790411204	4
0	7079	10833.86526644249	3
0	7081	10836.191287439976	2
0	7083	10843.424933810263	3
0	7086	10857.113677779512	2
0	7088	10862.112621666954	3
0	7091	10863.953091852362	4
0	7094	10863.97466010278	3
0	7096	10871.410426523333	2
0	7098	10873.313501022769	1
0	7100	10882.227320099544	2
0	7103	10884.566020818814	1
0	7105	10901.263382180282	2
0	7108	10902.391225298772	3
0	7111	10908.020550402254	2
0	7113	10917.815656598019	3
0	7116	10925.368998779594	2
0	7118	10928.206824407936	1
0	7120	10946.327030375551	2
0	7123	10950.123793416632	3
0	7126	10967.214447900271	4
0	7129	10975.070552129128	5
0	7132	10975.720370434409	4
0	7134	10983.096231045635	3
0	7136	10984.907063976899	4
0	7139	10992.04836614871	5
0	7142	10995.75209431021	4
0	7144	11003.653630630539	5
0	7147	11011.168836297128	6
0	7150	11019.8295889066	5
0	7152	11025.951255209811	4
0	7154	11032.201541366935	3
0	7156	11035.988350223035	4
0	7159	11036.565363265794	3
0	7161	11041.096662470052	4
0	7164	11048.124808850472	5
0	7167	11056.793861687244	6
0	7170	11067.657678713735	7
0	7173	11068.792239323712	8
0	7175	11068.874522737515	9
0	7177	11074.293457719991	8
0	7180	11076.095605498246	9
0	7182	11077.760516984537	10
0	7184	11078.510595307277	9
0	7187	11084.66155337208	8
0	7190	11090.171611275742	7
0	7193	11106.460059616282	8
0	7195	11109.904078552972	9
0	7197	11114.192235373896	8
0	7200	11122.172442119493	9
0	7202	11127.293299509173	10
0	7204	11130.264742946351	11
0	7206	11132.956761291051	12
0	7208	11133.287704291274	13
0	7210	11133.616830417467	14
0	7212	11137.840170581875	15
0	7214	11150.293448038475	14
0	7217	11154.987233765859	13
0	7220	11163.004171530512	14
0	7222	11164.00988142164	13
0	7225	11166.327722312121	14
0	7227	11167.107553082381	13
0	7230	11167.379775268769	14
0	7232	11168.738767600878	15
0	7234	11169.06735209599	14
0	7237	11180.999293244516	15
0	7239	11185.794602824613	14
0	7242	11186.913980346624	13
0	7245	11187.920852151061	12
0	7248	11188.832033078344	11
0	7251	11191.051681644016	12
0	7253	11199.699798198738	11
0	7256	11199.760122807389	12
0	7258	11200.034821789428	13
0	7260	11200.678945266324	14
0	7262	11202.778481014514	13
0	7265	11210.931475498679	14
0	7267	11211.761419924777	13
0	7270	11212.295097801771	12
0	7273	11212.829288703347	11
0	7276	11216.000011745402	10
0	7279	11219.001382693717	9
0	7282	11220.192112184297	8
0	7285	11223.697146724927	9
0	7287	11227.777220534055	8
0	7290	11233.183559366287	7
0	7293	11238.072314340241	8
0	7295	11239.276551549613	7
0	7298	11241.615106774308	8
0	7300	11249.219333299884	9
0	7302	11250.057702831659	8
0	7305	11250.443077660371	7
0	7308	11255.427877687698	8
0	7310	11275.2443174524	7
0	7313	11275.316322696879	6
0	7315	11275.79796117199	5
0	7317	11285.654661704827	4
0	7319	11287.669566736326	3
0	7321	11297.229615444858	4
0	7324	11302.451021868683	5
0	7327	11304.493757201982	4
0	7329	11304.615226314619	5
0	7332	11305.330745737201	4
0	7334	11305.707952981791	5
0	7337	11306.602156541062	6
0	7340	11306.780898328227	5
0	7342	11307.478318337988	6
0	7345	11311.470269465831	5
0	7347	11312.69074761804	4
0	7349	11313.684223134994	5
0	7352	11321.325199646535	4
0	7354	11321.760037158016	5
0	7357	11325.567764100931	6
0	7360	11329.64140717646	5
0	7362	11331.954510971437	6
0	7365	11333.146994393371	7
0	7368	11334.709809268835	8
0	7370	11337.226804894054	7
0	7373	11337.880320457437	6
0	7375	11343.793697822341	5
0	7377	11348.668978515578	6
0	7380	11349.697353744466	7
0	7383	11352.545870146621	6
0	7385	11356.669988008894	7
0	7388	11356.854293683701	6
0	7390	11364.054521509841	5
0	7392	11371.785883971458	6
0	7395	11373.451102410425	7
0	7398	11376.224773764388	6
0	7400	11378.438718964053	7
0	7403	11378.5649566507	6
0	7405	11379.31579584874	7
0	7408	11379.72984601935	6
0	7410	11383.63754675222	7
0	7413	11388.000048087106	8
0	7415	11393.579813709812	9
0	7417	11395.075312804755	8
0	7420	11405.084450747872	7
0	7423	11406.406721486503	6
0	7425	11406.783129281674	5
0	7427	11413.319205506118	4
0	7429	11417.043166836739	3
0	7431	11429.604173804951	2
0	7433	11432.521383185326	3
0	7436	11437.582073932162	2
0	7438	11437.72790302278	3
0	7441	11445.680313332045	4
0	7444	11446.822905792013	3
0	7446	11450.639872608369	4
0	7449	11456.167092366744	5
0	7452	11456.868285785704	4
0	7454	11465.903988530583	5
0	7457	11466.352299685356	4
0	7459	11471.569546447465	3
0	7461	11472.486609111061	4
0	7464	11484.98765860612	3
0	7466	11486.850999283215	2
0	7468	11488.674803289982	3
0	7471	11489.843829581014	2
0	7473	11501.963637608182	3
0	7476	11503.109993949172	4
0	7479	11508.893143215471	5
0	7482	11513.529151879711	6
0	7485	11516.958129911538	5
0	7487	11518.68507900556	6
0	7490	11519.324977578755	7
0	7493	11526.072856279178	8
0	7495	11528.28194305193	9
0	7497	11532.033196640674	8
0	7500	11533.377458672733	7
0	7503	11539.515688441526	6
0	7505	11545.901435750212	7
0	7508	11548.704097550166	6
0	7510	11553.413513044073	5
0	7512	11559.903126859974	6
0	7515	11567.333439323848	5
0	7517	11567.639289948229	4
0	7519	11569.811967120398	5
0	7522	11578.067328488613	6
0	7525	11580.853909386302	7
0	7528	11582.328865373811	6
0	7530	11591.36736896579	7
0	7533	11596.160308241196	8
0	7535	11605.875841948849	7
0	7538	11611.121773536447	8
0	7540	11612.479942200508	7
0	7543	11613.606049223806	6
0	7545	11617.770156478693	7
0	7548	11625.624634657737	8
0	7550	11631.115164626214	9
0	7552	11632.20283254041	10
0	7554	11633.554820432008	9
0	7557	11633.733942717062	8
0	7560	11635.40661372241	7
0	7563	11637.908660297426	6
0	7565	11648.049207075622	5
0	7567	11650.781673471843	6
0	7570	11651.931960808208	7
0	7573	11654.240231512065	6
0	7575	11659.653876358587	5
0	7577	11660.555506621826	4
0	7579	11665.527415084083	3
0	7581	11667.990351469873	2
0	7583	11671.853328882937	1
0	7585	11677.745257993442	2
0	7588	11681.277134344248	3
0	7591	11683.292978381145	2
0	7593	11690.95310324559	3
0	7596	11699.321133871828	2
0	7598	11715.311715055522	3
0	7601	11717.858920117636	4
0	7604	11727.870128364932	5
0	7607	11735.937720385429	6
0	7610	11737.368681999061	7
0	7613	11737.390758927827	6
0	7615	11739.621934580307	7
0	7618	11739.909184925654	6
0	7620	11742.252455523861	7
0	7623	11757.091644054565	8
0	7625	11757.150589299734	7
0	7628	11760.576785777576	6
0	7630	11772.131288988485	7
0	7633	11777.607686706359	6
0	7635	11780.716552834002	7
0	7638	11784.014216739487	6
0	7640	11789.574480956676	7
0	7643	11791.198810005739	6
0	7645	11794.337204889987	7
0	7648	11795.293611894555	6
0	7650	11833.087538628459	5
0	7652	11835.300074445041	6
0	7655	11842.403960495022	5
0	7657	11842.592656974719	6
0	7660	11843.692949502309	7
0	7663	11844.50857976982	8
0	7665	11850.761507951684	9
0	7667	11851.107721075335	8
0	7670	11855.105550545324	7
0	7673	11856.809449803645	8
0	7675	11864.38233520977	7
0	7678	11864.811401005346	8
0	7680	11872.674197478341	9
0	7682	11873.70799613684	8
0	7685	11875.726561132157	9
0	7687	11878.173013320531	8
0	7690	11878.621473489717	9
0	7692	11880.102174220297	8
0	7695	11882.580147576284	9
0	7697	11882.90142546638	10
0	7699	11882.960866657461	9
0	7702	11884.898698534342	8
0	7705	11894.658157836583	9
0	7707	11896.642446240757	10
0	7709	11897.790915892597	9
0	7712	11898.38760122218	10
0	7714	11900.418403842904	9
0	7717	11901.50636351484	8
0	7720	11902.606921508896	9
0	7722	11904.535286194498	8
0	7725	11906.095512827501	7
0	7728	11907.64314264059	8
0	7730	11912.71718677983	9
0	7732	11915.040866586026	8
0	7735	11923.611288020921	7
0	7738	11924.925538460284	6
0	7740	11927.753050068834	5
0	7742	11928.254769030734	4
0	7744	11935.609604734817	5
0	7747	11935.866341334512	4
0	7749	11939.008261952332	5
0	7752	11942.553253386534	4
0	7754	11943.07578308003	5
0	7757	11948.61323120143	6
0	7760	11949.776953786216	5
0	7762	11956.778838071509	6
0	7765	11957.289222995073	5
0	7767	11958.836359267583	6
0	7770	11959.239266977906	7
0	7773	11961.10739967013	6
0	7775	11966.943810150459	5
0	7777	11967.137933290813	4
0	7779	11971.484040445614	3
0	7781	11972.182699925746	2
0	7783	11975.656405621958	3
0	7786	11981.808923008882	4
0	7789	11990.644696210551	3
0	7791	11993.718628834196	2
0	7793	12014.610654311195	1
0	7795	12019.039672351421	0
0	7797	12022.124400510546	1
0	7800	12024.685202273486	2
0	7803	12024.888870204944	3
0	7806	12025.435800360889	2
0	7808	12029.426519956696	3
0	7811	12048.288356225927	4
0	7814	12048.484538689434	5
0	7817	12049.769440502696	4
0	7819	12053.653799995605	3
0	7821	12062.631466429546	2
0	7823	12062.698092288309	3
0	7826	12066.033933932021	4
0	7829	12067.638428122636	3
0	7831	12075.894285111289	2
0	7833	12078.953075491794	3
0	7836	12080.255240425752	4
0	7839	12085.024035488777	3
0	7841	12085.052295188865	4
0	7844	12092.366010757725	3
0	7846	12095.491337141039	4
0	7849	12097.820025201953	5
0	7852	12105.0487529223	6
0	7855	12114.132652638043	5
0	7857	12123.567732222207	6
0	7860	12126.137409886846	5
0	7862	12127.471554021765	4
0	7864	12128.088958497293	3
0	7866	12135.499568958073	4
0	7869	12136.089459972739	3
0	7871	12137.666339739606	2
0	7873	12138.697640991906	1
0	7875	12139.744518026098	2
0	7878	12142.606711511048	3
0	7881	12145.278588942605	4
0	7884	12148.271880617064	3
0	7886	12155.229706974186	2
0	7888	12156.24255527912	3
0	7891	12157.05876098024	4
0	7894	12158.376690670694	5
0	7897	12160.820874710806	4
0	7899	12164.723821845696	3
0	7901	12165.206060671346	4
0	7904	12168.814245836711	3
0	7906	12178.310368398899	4
0	7909	12178.403390682508	3
0	7911	12180.448345881018	4
0	7914	12185.653773300668	3
0	7916	12185.890081905219	2
0	7918	12191.937244996202	1
0	7920	12202.501138485886	2
0	7923	12202.806498187505	3
0	7926	12204.073352618925	4
0	7929	12206.525494967793	3
0	7931	12209.799969106278	4
0	7934	12221.961347656486	3
0	7936	12232.95416956599	4
0	7939	12233.320353476303	5
0	7942	12233.323628637686	6
0	7945	12237.452369214798	7
0	7948	12243.65870492236	6
0	7950	12248.383320452885	5
0	7952	12254.570022933196	4
0	7954	12257.466032514925	3
0	7956	12260.580655218925	4
0	7959	12270.013502383205	5
0	7962	12270.060046177017	6
0	7965	12280.187946794562	7
0	7968	12280.611331400583	6
0	7970	12286.003701075584	5
0	7972	12292.011127276575	4
0	7974	12292.639086014252	3
0	7976	12293.670094673016	4
0	7979	12294.369409638754	3
0	7981	12296.668273921195	4
0	7984	12310.922090507856	3
0	7986	12314.261225207791	4
0	7989	12315.016679143305	5
0	7992	12318.305970363893	6
0	7995	12326.492002801485	7
0	7998	12328.674873148204	6
0	8000	12329.254400963578	7
0	8003	12334.496873898321	8
0	8005	12340.38198830969	7
0	8008	12341.690311140664	6
0	8010	12344.207391724172	7
0	8013	12344.965809028506	8
0	8015	12352.711316488466	7
0	8018	12358.09506562988	6
0	8020	12358.919974686924	7
0	8023	12359.266723574795	8
0	8025	12360.766869101506	7
0	8028	12362.17163087605	6
0	8030	12370.538522544434	7
0	8033	12373.675264260353	6
0	8035	12374.277347718381	7
0	8038	12375.54701370337	8
0	8040	12377.405735482113	7
0	8043	12385.990432781263	6
0	8045	12387.138436359338	5
0	8047	12388.52687692158	4
0	8049	12395.715977338819	3
0	8051	12399.160638747165	4
0	8054	12403.495816222782	3
0	8056	12414.374269969279	4
0	8059	12416.294743192052	5
0	8062	12423.212958007728	6
[...]
1	7479	11508.893143215471	0
1	7482	11513.529151879711	0
1	7485	11516.958129911538	0
1	7487	11518.68507900556	0
1	7490	11519.324977578755	0
1	7493	11526.072856279178	1
1	7495	11528.28194305193	2
1	7497	11532.033196640674	1
1	7500	11533.377458672733	0
1	7503	11539.515688441526	0
1	7505	11545.901435750212	0
1	7508	11548.704097550166	0
1	7510	11553.413513044073	0
1	7512	11559.903126859974	0
1	7515	11567.333439323848	0
1	7517	11567.639289948229	0
1	7519	11569.811967120398	0
1	7522	11578.067328488613	0
1	7525	11580.853909386302	0
1	7528	11582.328865373811	0
1	7530	11591.36736896579	0
1	7533	11596.160308241196	1
1	7535	11605.875841948849	0
1	7538	11611.121773536447	1
1	7540	11612.479942200508	0
1	7543	11613.606049223806	0
1	7545	11617.770156478693	0
1	7548	11625.624634657737	1
1	7550	11631.115164626214	2
1	7552	11632.20283254041	3
1	7554	11633.554820432008	2
1	7557	11633.733942717062	1
1	7560	11635.40661372241	0
1	7563	11637.908660297426	0
1	7565	11648.049207075622	0
1	7567	11650.781673471843	0
1	7570	11651.931960808208	0
1	7573	11654.240231512065	0
1	7575	11659.653876358587	0
1	7577	11660.555506621826	0
1	7579	11665.527415084083	0
1	7581	11667.990351469873	0
1	7583	11671.853328882937	0
1	7585	11677.745257993442	0
1	7588	11681.277134344248	0
1	7591	11683.292978381145	0
1	7593	11690.95310324559	0
1	7596	11699.321133871828	0
1	7598	11715.311715055522	0
1	7601	11717.858920117636	0
1	7604	11727.870128364932	0
1	7607	11735.937720385429	0
1	7610	11737.368681999061	0
1	7613	11737.390758927827	0
1	7615	11739.621934580307	0
1	7618	11739.909184925654	0
1	7620	11742.252455523861	0
1	7623	11757.091644054565	1
1	7625	11757.150589299734	0
1	7628	11760.576785777576	0
1	7630	11772.131288988485	0
1	7633	11777.607686706359	0
1	7635	11780.716552834002	0
1	7638	11784.014216739487	0
1	7640	11789.574480956676	0
1	7643	11791.198810005739	0
1	7645	11794.337204889987	0
1	7648	11795.293611894555	0
1	7650	11833.087538628459	0
1	7652	11835.300074445041	0
1	7655	11842.403960495022	0
1	7657	11842.592656974719	0
1	7660	11843.692949502309	0
1	7663	11844.50857976982	1
1	7665	11850.761507951684	2
1	7667	11851.107721075335	1
1	7670	11855.105550545324	0
1	7673	11856.809449803645	1
1	7675	11864.38233520977	0
1	7678	11864.811401005346	1
1	7680	11872.674197478341	2
1	7682	11873.70799613684	1
1	7685	11875.726561132157	2
1	7687	11878.173013320531	1
1	7690	11878.621473489717	2
1	7692	11880.102174220297	1
1	7695	11882.580147576284	2
1	7697	11882.90142546638	3
1	7699	11882.960866657461	2
1	7702	11884.898698534342	1
1	7705	11894.658157836583	2
1	7707	11896.642446240757	3
1	7709	11897.790915892597	2
1	7712	11898.38760122218	3
1	7714	11900.418403842904	2
1	7717	11901.50636351484	1
1	7720	11902.606921508896	2
1	7722	11904.535286194498	1
1	7725	11906.095512827501	0
1	7728	11907.64314264059	1
1	7730	11912.71718677983	2
1	7732	11915.040866586026	1
1	7735	11923.611288020921	0
1	7738	11924.925538460284	0
1	7740	11927.753050068834	0
1	7742	11928.254769030734	0
1	7744	11935.609604734817	0
1	7747	11935.866341334512	0
1	7749	11939.008261952332	0
1	7752	11942.553253386534	0
1	7754	11943.07578308003	0
1	7757	11948.61323120143	0
1	7760	11949.776953786216	0
1	7762	11956.778838071509	0
1	7765	11957.289222995073	0
1	7767	11958.836359267583	0
1	7770	11959.239266977906	0
1	7773	11961.10739967013	0
1	7775	11966.943810150459	0
1	7777	11967.137933290813	0
1	7779	11971.484040445614	0
1	7781	11972.182699925746	0
1	7783	11975.656405621958	0
1	7786	11981.808923008882	0
1	7789	11990.644696210551	0
1	7791	11993.718628834196	0
1	7793	12014.610654311195	0
1	7795	12019.039672351421	0
1	7797	12022.124400510546	0
1	7800	12024.685202273486	0
1	7803	12024.888870204944	0
1	7806	12025.435800360889	0
1	7808	12029.426519956696	0
1	7811	12048.288356225927	0
1	7814	12048.484538689434	0
1	7817	12049.769440502696	0
1	7819	12053.653799995605	0
1	7821	12062.631466429546	0
1	7823	12062.698092288309	0
1	7826	12066.033933932021	0
1	7829	12067.638428122636	0
1	7831	12075.894285111289	0
1	7833	12078.953075491794	0
1	7836	12080.255240425752	0
1	7839	12085.024035488777	0
1	7841	12085.052295188865	0
1	7844	12092.366010757725	0
1	7846	12095.491337141039	0
1	7849	12097.820025201953	0
1	7852	12105.0487529223	0
1	7855	12114.132652638043	0
1	7857	12123.567732222207	0
1	7860	12126.137409886846	0
1	7862	12127.471554021765	0
1	7864	12128.088958497293	0
1	7866	12135.499568958073	0
1	7869	12136.089459972739	0
1	7871	12137.666339739606	0
1	7873	12138.697640991906	0
1	7875	12139.744518026098	0
1	7878	12142.606711511048	0
1	7881	12145.278588942605	0
1	7884	12148.271880617064	0
1	7886	12155.229706974186	0
1	7888	12156.24255527912	0
1	7891	12157.05876098024	0
1	7894	12158.376690670694	0
1	7897	12160.820874710806	0
1	7899	12164.723821845696	0
1	7901	12165.206060671346	0
1	7904	12168.814245836711	0
1	7906	12178.310368398899	0
1	7909	12178.403390682508	0
1	7911	12180.448345881018	0
1	7914	12185.653773300668	0
1	7916	12185.890081905219	0
1	7918	12191.937244996202	0
1	7920	12202.501138485886	0
1	7923	12202.806498187505	0
1	7926	12204.073352618925	0
1	7929	12206.525494967793	0
1	7931	12209.799969106278	0
1	7934	12221.961347656486	0
1	7936	12232.95416956599	0
1	7939	12233.320353476303	0
1	7942	12233.323628637686	0
1	7945	12237.452369214798	0
1	7948	12243.65870492236	0
1	7950	12248.383320452885	0
1	7952	12254.570022933196	0
1	7954	12257.466032514925	0
1	7956	12260.580655218925	0
1	7959	12270.013502383205	0
1	7962	12270.060046177017	0
1	7965	12280.187946794562	0
1	7968	12280.611331400583	0
1	7970	12286.003701075584	0
1	7972	12292.011127276575	0
1	7974	12292.639086014252	0
1	7976	12293.670094673016	0
1	7979	12294.369409638754	0
1	7981	12296.668273921195	0
1	7984	12310.922090507856	0
1	7986	12314.261225207791	0
1	7989	12315.016679143305	0
1	7992	12318.305970363893	0
1	7995	12326.492002801485	0
1	7998	12328.674873148204	0
1	8000	12329.254400963578	0
1	8003	12334.496873898321	1
1	8005	12340.38198830969	0
1	8008	12341.690311140664	0
1	8010	12344.207391724172	0
1	8013	12344.965809028506	1
1	8015	12352.711316488466	0
1	8018	12358.09506562988	0
1	8020	12358.919974686924	0
1	8023	12359.266723574795	1
1	8025	12360.766869101506	0
1	8028	12362.17163087605	0
1	8030	12370.538522544434	0
1	8033	12373.675264260353	0
1	8035	12374.277347718381	0
1	8038	12375.54701370337	1
1	8040	12377.405735482113	0
1	8043	12385.990432781263	0
1	8045	12387.138436359338	0
1	8047	12388.52687692158	0
1	8049	12395.715977338819	0
1	8051	12399.160638747165	0
1	8054	12403.495816222782	0
1	8056	12414.374269969279	0
1	8059	12416.294743192052	0
1	8062	12423.212958007728	0
1	8065	12426.615329901464	0
1	8067	12427.811720656201	0
1	8069	12428.58575506825	0
1	8072	12429.699945085531	0
1	8075	12430.242021276257	0
1	8078	12432.4634101936	0
1	8080	12434.898883758869	0
1	8083	12437.403338702237	1
1	8085	12440.3925715153	0
1	8088	12440.998101480278	1
1	8090	12442.971380203469	0
1	8093	12446.044666529293	1
1	8095	12448.912940436416	0
1	8098	12450.47141153566	0
1	8100	12450.680746171357	0
1	8103	12450.744782478514	0
1	8105	12451.045811822572	0
1	8108	12454.221826973493	0
1	8110	12454.690711610341	0
1	8113	12454.700707428812	0
1	8115	12456.000915855537	0
1	8118	12457.909629143312	0
1	8120	12467.664317341549	0
1	8123	12471.60749653918	0
1	8125	12475.880099503284	0
1	8128	12477.561908656162	0
1	8130	12479.250707826768	0
1	8132	12480.695932282219	0
1	8135	12482.138288526336	0
1	8138	12486.506757409462	0
1	8140	12489.203824204074	0
1	8142	12494.819141860858	0
1	8145	12499.948876156807	0
1	8147	12501.471664398789	0
1	8150	12512.2551913156	0
1	8152	12522.95060432272	0
1	8155	12529.687529335958	0
1	8158	12538.28788654637	1
1	8160	12538.60864349137	0
1	8163	12541.076298981072	0
1	8165	12549.130486588465	0
1	8168	12554.200424206344	0
1	8170	12556.004860673182	0
1	8172	12556.336545678162	0
1	8174	12556.906790060983	0
1	8177	12562.251578933478	0
1	8180	12563.992504067887	0
1	8183	12567.345826958735	1
1	8185	12568.015560142275	0
1	8188	12570.427156378285	0
1	8190	12571.159231798151	0
1	8192	12572.627613439941	0
1	8194	12573.701081296876	0
1	8197	12580.072779831039	0
1	8199	12581.397387883782	0
1	8202	12588.546735414176	0
1	8204	12594.758411473704	0
1	8206	12597.04000838964	0
1	8209	12597.455742963296	0
1	8211	12602.216256103869	0
1	8214	12602.779123070963	0
1	8216	12603.449296823022	0
1	8219	12618.35552500964	0
1	8222	12619.699618904864	0
1	8224	12625.478120496971	0
1	8226	12633.218011929035	0
1	8228	12643.009958121373	0
1	8231	12649.32655001872	0
1	8234	12650.302261223077	0
1	8237	12651.610613977446	0
1	8239	12659.529550531732	0
1	8242	12659.71488822994	0
1	8244	12663.354794323982	0
1	8246	12664.30624261333	0
1	8248	12665.544895431627	0
1	8251	12666.321310440995	0
1	8253	12671.376737478132	0
1	8255	12671.849971358972	0
1	8258	12677.959674813956	0
1	8261	12679.52824525262	0
1	8264	12682.545544842976	0
1	8267	12682.861883552314	0
1	8269	12685.378582557212	0
1	8271	12689.488419663089	0
1	8273	12692.778258121158	0
1	8276	12698.550094532375	0
1	8278	12705.765109837596	0
1	8281	12706.534478905813	0
1	8283	12717.232977198713	0
1	8285	12739.553421780002	0
1	8288	12739.890357859829	0
1	8291	12739.957616928326	0
1	8294	12740.221875496073	0
1	8296	12740.564395518263	0
1	8299	12741.028307255268	0
1	8302	12750.622359101422	0
1	8304	12762.098145116042	0
1	8307	12770.232462126836	0
1	8310	12770.691916424581	0
1	8312	12778.954220180676	0
1	8314	12784.051991682207	0
1	8317	12784.690084079327	0
1	8320	12788.559966149604	0
1	8323	12791.928987166192	1
1	8325	12796.980998507577	0
1	8328	12800.351210782787	1
1	8330	12802.463812931468	0
1	8333	12810.684283247369	0
1	8335	12811.194740274706	0
1	8338	12814.968658055199	1
1	8340	12820.241847178466	2
1	8342	12824.405608755423	1
1	8345	12825.69621120306	0
1	8348	12826.831049041162	0
1	8350	12827.890924166924	0
1	8353	12831.145591649142	1
1	8355	12833.107097332849	0
1	8358	12833.770649222323	1
1	8360	12834.844918478683	0
1	8363	12846.106441441391	0
1	8365	12871.872991455735	0
1	8367	12872.253551879958	0
1	8370	12873.309490544417	0
1	8372	12874.425900848978	0
1	8374	12878.627298211156	0
1	8376	12885.350384016356	0
1	8379	12885.608332530441	0
1	8381	12885.918564883851	0
1	8383	12889.207494398742	0
1	8386	12898.870456698023	0
1	8388	12902.459671058292	0
1	8391	12922.637287769397	0
1	8394	12926.259042370642	0
1	8396	12928.044911202892	0
1	8398	12940.81627478273	0
1	8401	12940.985732577293	0
1	8404	12943.217641189736	0
1	8407	12944.352823789966	0
1	8409	12946.237499323988	0
1	8412	12948.266641174927	0
1	8415	12965.109618094392	0
1	8418	12965.214024740629	1
1	8420	12967.534508754278	2
1	8422	12971.470470981504	1
1	8425	12979.564773836338	0
1	8428	12979.707641329897	1
1	8430	12985.999429478289	0
1	8433	12988.18965727413	0
1	8435	12994.225101273018	0
1	8437	12995.468826209724	0
1	8439	13006.523745590888	0
1	8441	13009.241404683464	0
1	8444	13012.220779617359	0
1	8446	13012.913101334122	0
1	8449	13013.7000104851	0
1	8451	13026.151907631283	0
1	8454	13029.384451658813	0
1	8456	13032.327516584912	0
1	8458	13033.782998410402	0
1	8460	13059.459472924431	0
1	8463	13073.046516807634	0
1	8466	13079.882743830033	0
1	8468	13093.884319138775	0
1	8471	13096.870911389864	0
1	8473	13103.996565615388	0
1	8476	13111.010286680501	0
1	8479	13111.858753818622	0
1	8482	13115.73125366251	0
1	8484	13118.032791112564	0
1	8486	13145.018932081671	0
1	8489	13152.356272746424	0
1	8491	13156.189316299966	0
1	8494	13161.518098686934	0
1	8496	13165.086077357816	0
1	8499	13171.13015094487	0
1	8502	13177.387061909929	0
1	8505	13193.572972522094	0
1	8508	13195.029716042655	1
1	8510	13195.790537462004	0
1	8513	13199.100950963933	0
1	8515	13202.013583196662	0
1	8518	13203.083970959861	1
1	8520	13212.649684227979	2
1	8522	13216.582141561481	3
1	8524	13222.212245219942	4
1	8526	13224.493799492173	3
1	8529	13227.614192665961	4
1	8531	13228.462085806886	3
1	8534	13228.935354468647	2
1	8537	13234.242945384669	3
1	8539	13234.45050613403	2
1	8542	13238.254146452219	3
1	8544	13244.7994321263	4
1	8546	13245.904768188233	5
1	8548	13246.642058480354	6
1	8550	13246.827349784909	5
1	8553	13250.193592146471	4
1	8556	13250.934630543863	5
1	8558	13252.194236058448	6
1	8560	13256.69448366936	5
1	8563	13270.673139292958	4
1	8566	13270.887410072114	5
1	8568	13271.316532266728	6
1	8570	13275.41616917938	5
1	8573	13275.935747738022	4
1	8576	13276.73075994667	3
1	8579	13279.864509851913	2
1	8582	13280.326945525887	1
1	8585	13301.260603928235	0
1	8588	13302.734254172852	1
1	8590	13315.851047808174	0
1	8593	13317.65391231484	1
1	8595	13318.174778603012	2
1	8597	13326.630280055818	1
1	8600	13326.876454267198	0
1	8603	13328.478807483861	0
1	8605	13333.16524020871	0
1	8608	13333.502623022575	0
1	8610	13335.548108882481	0
1	8613	13338.162315619144	0
1	8615	13341.246303548531	0
1	8618	13341.441903151567	0
1	8620	13348.744146700364	0
1	8623	13350.93751392671	1
1	8625	13351.499456731152	2
1	8627	13359.996302683469	3
1	8629	13360.406320948805	2
1	8632	13363.535237775262	1
1	8635	13365.80907062921	0
1	8638	13366.36640564147	0
1	8640	13373.138212312963	0
1	8642	13377.041545486106	0
1	8644	13386.990856320543	0
1	8646	13394.85891186234	0
1	8648	13396.439125117545	0
1	8651	13396.572181895292	0
1	8653	13402.372653003185	0
1	8656	13405.561872339296	0
1	8658	13413.722523342117	0
1	8660	13418.443165937953	0
1	8663	13419.698164488491	0
1	8666	13441.364986076094	0
1	8668	13446.171758837069	0
1	8670	13451.51706674782	0
1	8673	13453.084040794323	0
1	8676	13453.10259350817	0
1	8678	13453.269000247973	0
1	8681	13453.446688435294	0
1	8683	13461.832656808866	0
1	8686	13474.145394354937	0
1	8688	13475.847101093933	0
1	8690	13498.463127974431	0
1	8693	13505.961691763484	0
1	8696	13511.181334915551	0
1	8699	13518.081569526064	0
1	8701	13519.904934885361	0
1	8704	13520.563552162518	0
1	8707	13531.663469773297	0
1	8710	13532.546787187083	0
1	8712	13534.334752876551	0
1	8714	13546.831103454489	0
1	8717	13547.444338156051	0
1	8719	13550.972420744088	0
1	8722	13551.531472380148	0
1	8724	13552.568906248935	0
1	8727	13567.130274785428	0
1	8729	13569.201358643372	0
1	8732	13571.379166007235	0
1	8734	13576.07194995128	0
1	8736	13584.613816452035	0
1	8738	13584.926978081858	0
1	8740	13591.578024978833	0
1	8743	13612.419074192425	0
1	8746	13616.069241794309	0
1	8748	13618.959552864967	0
1	8751	13620.171984336649	0
1	8753	13636.752033625922	0
1	8756	13645.44359847645	0
1	8759	13645.758176257498	0
1	8762	13647.025511218171	0
1	8764	13647.97675798585	0
1	8766	13655.632561307579	0
1	8769	13656.31791844021	0
1	8772	13657.222821752164	0
1	8775	13659.414218820184	0
1	8777	13660.575794745138	0
1	8780	13667.020476648895	0
1	8782	13671.166705103093	0
1	8784	13687.023995961253	0
1	8787	13688.330959782697	0
1	8790	13692.917206101188	0
1	8793	13698.777759452998	1
1	8795	13702.523942973274	2
1	8797	13709.147574475517	3
1	8799	13712.514758005601	4
1	8801	13715.246372349014	3
1	8804	13721.925157013911	4
1	8806	13722.34593308624	5
1	8808	13724.552131599443	6
1	8810	13726.928148635725	5
1	8813	13731.765130571113	6
1	8815	13734.849149565695	5
1	8818	13745.833264304796	6
1	8820	13750.510903156718	5
1	8823	13752.731843685223	6
1	8825	13753.927376587601	5
1	8828	13755.902722797305	6
1	8830	13756.652816974001	7
1	8832	13759.692716791543	6
1	8835	13759.870964052748	7
1	8837	13761.376396917017	6
1	8840	13762.074010894341	5
1	8843	13762.295751665975	6
1	8845	13764.855889652489	5
1	8848	13765.324945697449	4
1	8851	13768.605577083353	3
1	8854	13772.235916184081	2
1	8857	13778.049462042387	3
1	8859	13778.39948707467	2
1	8862	13780.794405459244	3
1	8864	13785.101701892495	2
1	8867	13788.876094311154	3
1	8869	13789.812185161538	2
1	8872	13791.494651031036	3
1	8874	13794.104028250944	4
1	8876	13796.969142847872	3
1	8879	13802.964324339408	4
1	8881	13803.969085812453	5
1	8883	13805.098630749374	4
1	8886	13805.614741479979	3
1	8889	13815.104966364629	2
1	8892	13817.101450183434	1
1	8895	13820.915718813005	0
1	8898	13826.202485237343	0
1	8900	13827.262878288132	0
1	8903	13827.342181778464	0
1	8905	13828.927081122545	0
1	8907	13835.03045135638	0
1	8909	13836.851632633993	0
1	8912	13839.583140781822	0
1	8914	13846.142418313617	0
1	8916	13849.558240467252	0
1	8918	13869.840026154733	0
1	8920	13884.492073352573	0
1	8923	13890.517909725166	0
1	8926	13904.001596266526	0
1	8929	13907.147290163156	0
1	8932	13914.039316147803	0
1	8934	13924.683161794748	0
1	8937	13937.407290425143	0
1	8939	13937.725037471196	0
1	8942	13942.297107274609	0
1	8944	13947.199763577516	0
1	8947	13949.70761751004	0
1	8950	13951.371674057058	0
1	8953	13957.858845851529	0
1	8955	13965.335589690073	0
1	8958	13970.578653337423	1
1	8960	13971.613610059195	2
1	8962	13972.09531524897	3
1	8964	13974.6132551619	4
1	8966	13978.177952411836	3
1	8969	13980.124759410088	2
1	8972	13988.210829593529	1
1	8975	13991.366836514613	2
1	8977	13991.588261439718	1
1	8980	13993.068591804105	2
1	8982	14000.620256748153	1
1	8985	14001.254631693927	0
1	8988	14005.202947020612	1
1	8990	14010.444179546333	0
1	8993	14014.69292911182	1
1	8995	14016.144305402282	2
1	8997	14022.33374630542	1
1	9000	14023.422539684382	0
1	9003	14023.453860221582	1
1	9005	14025.011862144789	2
1	9007	14028.478761641288	1
1	9010	14028.723278756267	2
1	9012	14034.272859293252	1
1	9015	14035.379510189593	0
1	9018	14035.539942429345	1
1	9020	14035.646387343546	0
1	9023	14036.468354190292	0
1	9025	14038.370212851386	0
1	9027	14042.409658211637	0
1	9029	14042.55152609121	0
1	9031	14042.689922943429	0
1	9034	14043.703614683622	0
1	9037	14058.688568263138	0
1	9039	14068.376722085652	0
1	9042	14068.441944866434	0
1	9045	14069.246501239354	0
1	9047	14082.31720418953	0
1	9050	14083.98660564903	0
1	9053	14085.888226775599	1
1	9055	14092.171684496356	0
1	9058	14092.327297244206	1
1	9060	14093.769726102937	2
1	9062	14094.449365193666	1
1	9065	14095.949247592957	2
1	9067	14095.981904109814	1
1	9070	14096.258264327938	2
1	9072	14097.208146576963	3
1	9074	14097.458482279637	4
1	9076	14100.412446365951	5
1	9078	14103.304009973694	6
1	9080	14105.822495611423	5
1	9083	14105.940008444246	4
1	9086	14116.198170424523	5
1	9088	14117.517788483642	4
1	9091	14119.186723856872	3
1	9094	14120.843254242807	4
1	9096	14126.346007080376	3
1	9099	14128.512544995262	2
1	9102	14131.914401864274	3
1	9104	14147.700838740777	2
1	9107	14155.356777820558	1
1	9110	14155.659850224975	0
1	9113	14159.315931150359	1
1	9115	14161.961325140078	2
1	9117	14162.309178796362	1
1	9120	14171.92981158692	2
1	9122	14173.746223136779	3
1	9124	14175.715612941978	2
1	9127	14176.183116696778	1
1	9130	14176.703319894597	2
1	9132	14176.922054639393	3
1	9134	14179.009617575189	2
1	9137	14187.528476139043	1
1	9140	14187.833908595959	0
1	9143	14189.933218372471	0
1	9145	14204.942878177218	0
1	9148	14207.199065061118	1
1	9150	14209.796948191577	2
1	9152	14212.80657131736	3
1	9154	14217.084612797153	4
1	9156	14221.948967650047	5
1	9158	14226.019566604916	4
1	9161	14226.576117883367	5
1	9163	14228.535996777221	4
1	9166	14233.711223113883	5
1	9168	14236.443299925547	4
1	9171	14239.737943084435	3
1	9174	14240.493263555032	2
1	9177	14241.052629621819	1
1	9180	14244.465165717096	0
1	9183	14247.763112028997	1
1	9185	14255.338481199028	2
1	9187	14255.41149605192	1
1	9190	14261.407407218541	2
1	9192	14265.769491925588	1
1	9195	14266.780133967967	0
1	9198	14270.948614963287	0
1	9200	14271.649690003006	0
1	9202	14277.644802844773	0
1	9205	14277.713709779103	0
1	9207	14278.305998287258	0
1	9209	14288.106077700534	0
1	9212	14288.413369695425	0
1	9214	14291.056729500173	0
1	9217	14304.252201330967	0
1	9219	14314.488987267686	0
1	9222	14324.006251533972	0
1	9225	14324.21688385158	0
1	9228	14325.155964325254	1
1	9230	14326.338648444738	0
1	9233	14333.551669169232	0
1	9235	14334.81758242172	0
1	9237	14339.56792241525	0
1	9240	14347.839559655383	0
1	9242	14348.396886949269	0
1	9244	14349.367660383407	0
1	9246	14349.885201570539	0
1	9249	14351.274470334208	0
1	9252	14360.058769422607	0
1	9254	14363.687167229853	0
1	9256	14365.409032211661	0
1	9258	14374.887535969198	0
1	9261	14378.643360000969	0
1	9263	14379.2393837956	0
1	9265	14383.980029185978	0
1	9268	14391.293287427841	0

