version 2
run POLICY_1-16-20191213-12:40:09-1217
attr configname POLICY_1
attr datetime 20191213-12:40:09
attr experiment POLICY_1
attr inifile omnetpp.ini
attr iterationvars ""
attr iterationvarsf ""
attr measurement ""
attr network Carrefour
attr processid 1217
attr repetition 16
attr replication #16
attr resultdir results
attr runnumber 16
attr seedset 16
param **.policy 1
param **.delta 0s
param **.tillsNumber 7
param **.capacity 0.3
param **.meanInterArrivalTime 8s
param **.meanItemsInACart 12
param **.interArrivalDistribution 0
param **.itemsInCartDistribution 0

vector 0 Carrefour.decider stats_numCustomers:vector ETV
attr "" ""
attr source numCustomers
vector 1 Carrefour.decider stats_numCustomersQueue:vector ETV
attr "" ""
attr source numCustomersQueue
0	687	1201.216042573763	4
0	689	1205.434952140231	5
0	692	1210.122432118214	4
0	694	1214.772630187684	5
0	697	1217.298021204678	6
0	700	1224.658922484225	5
0	702	1229.789506116058	6
0	705	1230.901927217128	7
0	708	1231.523609242055	6
0	710	1239.680007496314	5
0	712	1255.044620991076	6
0	715	1260.164856768238	7
0	718	1260.82134880148	6
0	720	1261.818120209963	5
0	722	1269.06140541525	4
0	724	1270.078023625819	5
0	727	1273.339844739872	4
0	729	1274.040614496721	5
0	732	1275.828203758675	6
0	735	1279.982831950752	7
0	738	1281.398022989696	6
0	740	1293.12397510839	7
0	743	1296.898725422929	8
0	745	1298.245380152141	7
0	748	1300.188587783538	6
0	750	1301.620837818774	5
0	752	1305.003800331394	6
0	755	1307.768264612732	7
0	758	1320.801277989818	6
0	760	1322.034565999813	7
0	763	1328.474038567378	8
0	765	1329.341377124017	9
0	767	1330.626184276912	8
0	770	1333.854986003523	9
0	772	1335.071998938525	10
0	774	1339.469207547956	9
0	777	1347.322990277959	10
0	779	1347.669943460446	9
0	782	1348.30981578345	10
0	784	1357.962243389548	11
0	786	1361.218003465091	10
0	789	1361.249247486786	11
0	791	1362.273013583666	10
0	794	1373.232758323697	11
0	796	1375.305717487585	12
0	798	1377.607992932525	11
0	801	1378.02122138662	12
0	803	1382.326000458096	11
0	806	1385.913046355285	10
0	809	1386.437629638379	11
0	811	1388.326594212206	12
0	813	1389.767870877827	11
0	816	1392.56377462311	12
0	818	1392.752106151106	11
0	821	1393.555551461512	10
0	824	1398.175040622708	11
0	826	1401.671507228665	10
0	829	1403.898649840856	9
0	832	1409.332727098767	10
0	834	1410.475612269197	11
0	836	1410.571006178716	12
0	838	1412.074799400311	13
0	840	1412.376010730455	14
0	842	1412.8507142383	13
0	845	1414.62923130627	14
0	847	1416.843840031895	13
0	850	1422.879606862417	14
0	852	1423.025692915442	13
0	855	1423.228409826339	14
0	857	1430.480512329566	15
0	859	1432.533979086898	16
0	861	1433.146267580252	15
0	864	1434.682468311783	16
0	866	1435.251302704408	15
0	869	1436.49890517065	14
0	872	1438.958887029348	13
0	875	1441.102708351849	12
0	878	1442.544736204481	13
0	880	1450.183638234628	14
0	882	1455.797064008148	13
0	885	1457.099985167781	12
0	888	1458.231677794354	13
0	890	1459.605640000407	12
0	893	1460.287951519747	11
0	896	1462.183633965139	12
0	898	1468.274008782256	13
0	900	1470.34593796794	12
0	903	1472.524737455764	11
0	906	1476.529980509325	10
0	909	1477.052704053386	11
0	911	1484.030937671252	10
0	914	1487.688555297898	11
0	916	1492.509504710199	10
0	919	1493.057920687509	9
0	922	1493.366865983813	10
0	924	1503.272049963123	9
0	927	1503.370750655924	8
0	930	1506.873225592479	9
0	932	1509.973787272701	10
0	934	1513.731975563435	11
0	936	1514.337521507303	10
0	939	1517.590449863097	11
0	941	1522.190169215478	10
0	944	1529.676910845371	9
0	947	1530.665317264423	10
0	949	1534.591642855266	11
0	951	1536.687584406479	10
0	954	1543.258426009536	9
0	957	1546.396208375415	8
0	960	1551.530411859599	9
0	962	1556.711062376217	8
0	965	1569.524970973637	9
0	967	1575.079994432184	8
0	970	1576.59728729454	9
0	972	1584.195504792031	10
0	974	1585.130719816622	9
0	977	1592.728864679955	10
0	979	1593.019948468343	9
0	982	1596.96677993141	8
0	985	1601.781215002268	9
0	987	1601.862330430196	8
0	990	1604.526054374323	9
0	992	1605.299017599565	8
0	995	1605.661268215883	9
0	997	1609.594253549528	10
0	999	1612.25480514971	11
0	1001	1613.344162842606	12
0	1003	1613.567047044754	13
0	1005	1614.622013307156	12
0	1008	1615.481347491004	13
0	1010	1615.73529305789	12
0	1013	1617.856492005525	13
0	1015	1624.985312037157	12
0	1018	1629.110221726229	13
0	1020	1629.937137208214	12
0	1023	1632.128290877754	13
0	1025	1639.046813526686	14
0	1027	1639.814648679518	15
0	1029	1647.808369713314	16
0	1031	1649.526356589775	17
0	1033	1653.385009122374	16
0	1036	1659.648720856817	15
0	1039	1662.50357924414	14
0	1042	1666.756038275891	13
0	1045	1673.031056353172	12
0	1048	1674.804121962109	13
0	1050	1677.783960129642	14
0	1052	1677.925800870683	13
0	1055	1678.575925474988	14
0	1057	1683.729914666078	13
0	1060	1684.306990570658	14
0	1062	1685.40021214022	15
0	1064	1688.989245796896	16
0	1066	1690.61257955002	15
0	1069	1691.568217729745	14
0	1072	1693.165356656147	15
0	1074	1697.20451109851	14
0	1077	1704.129833976621	15
0	1079	1706.14546502191	16
0	1081	1709.30203209851	15
0	1084	1711.412964684861	16
0	1086	1714.92378482699	15
0	1089	1717.480331305402	16
0	1091	1723.601333393196	15
0	1094	1724.171742582686	16
0	1096	1724.845824401207	15
0	1099	1728.13321164247	14
0	1102	1737.751526773619	13
0	1105	1738.374689533255	14
0	1107	1741.882604099785	13
0	1110	1755.425741679326	12
0	1113	1767.851408089928	11
0	1116	1768.188692591272	12
0	1118	1771.272839625696	11
0	1121	1772.667515556125	10
0	1124	1775.603776374733	11
0	1126	1776.611542474276	10
0	1129	1780.867575615965	9
0	1132	1780.961900194776	10
0	1134	1782.602261567945	11
0	1136	1783.583994459642	10
0	1139	1784.951234843675	11
0	1141	1786.61127226931	10
0	1144	1788.792423327586	11
0	1146	1796.521434638164	10
0	1149	1803.374240323829	9
0	1152	1809.191664259567	8
0	1155	1810.020597908651	7
0	1158	1815.576588816282	6
0	1160	1819.452849881789	7
0	1163	1822.119492686033	8
0	1165	1823.495497300004	9
0	1167	1833.216103021815	10
0	1169	1841.607687748792	11
0	1171	1843.949758623898	12
0	1173	1844.005932219899	13
0	1175	1851.312977659246	12
0	1178	1855.469364858204	13
0	1180	1856.209961004031	14
0	1182	1858.805326114726	15
0	1184	1863.221054787487	16
0	1186	1863.590418412997	17
0	1188	1870.306965610368	18
0	1190	1872.158462131743	17
0	1193	1875.747599670376	16
0	1196	1878.993122617626	15
0	1199	1879.122061072259	14
0	1202	1890.998395984925	13
0	1205	1893.162454435912	14
0	1207	1896.285911229004	13
0	1210	1900.713792954854	12
0	1213	1901.277831837161	11
0	1216	1901.506528167249	12
0	1218	1907.315846450385	13
0	1220	1908.255195224969	14
0	1222	1911.173828980185	13
0	1225	1913.539975563409	12
0	1228	1919.068418400206	13
0	1230	1919.793061905359	12
0	1233	1922.224690366698	13
0	1235	1923.668289921564	12
0	1238	1925.678179641306	11
0	1241	1929.523285738595	12
0	1243	1929.833185245834	11
0	1246	1932.161695827607	10
0	1249	1948.341860491287	9
0	1252	1949.827568691609	8
0	1255	1957.671473742032	9
0	1257	1968.391900317289	8
0	1260	1979.866604207145	7
0	1263	1982.047826603238	6
0	1265	1998.248683713415	5
0	1267	1999.959513363567	6
0	1270	2001.039518771462	7
0	1273	2002.430389432739	8
0	1275	2002.511276602026	7
0	1278	2002.623433196383	8
0	1280	2006.245953069421	7
0	1283	2006.9483866661	8
0	1285	2016.457146723914	7
0	1288	2021.696128350661	8
0	1290	2027.230950887697	9
0	1292	2029.022966666915	10
0	1294	2038.201560987104	11
0	1296	2042.490343848504	10
0	1299	2042.8077374873	11
0	1301	2043.726025625732	10
0	1304	2044.29701910311	9
0	1307	2046.047058280152	8
0	1310	2047.453908850217	7
0	1313	2052.714616314314	6
0	1315	2053.694713772579	7
0	1318	2055.883710948138	6
0	1320	2055.897510610303	7
0	1323	2056.271801289597	8
0	1325	2056.525158307824	7
0	1328	2057.129631781354	8
0	1330	2063.807303038675	9
0	1332	2065.192821382568	10
0	1334	2075.212210034092	9
0	1337	2083.483993477173	8
0	1340	2087.767560748699	7
0	1343	2089.498068138107	8
0	1345	2089.857484950249	9
0	1347	2094.502721356165	8
0	1350	2099.319043846822	7
0	1353	2100.057061323664	6
0	1355	2100.824145321976	5
0	1357	2103.51987587898	4
0	1359	2105.990440309109	5
0	1362	2107.200663152241	4
0	1364	2108.310013482209	3
0	1366	2108.473077541866	4
0	1369	2110.31830852066	5
0	1372	2126.731677911675	6
0	1375	2134.289706170862	7
0	1378	2135.785931735903	8
0	1380	2140.170131999008	9
0	1382	2140.935336276037	10
0	1384	2145.722040024479	11
0	1386	2149.819814030508	10
0	1389	2154.97857473639	11
0	1391	2155.338597812108	12
0	1393	2155.528300068002	11
0	1396	2158.278649495959	10
0	1399	2159.826011073581	9
0	1402	2162.344311424848	8
0	1405	2167.873965617369	9
0	1407	2167.928920633349	10
0	1409	2168.297031752458	9
0	1412	2170.818965053972	10
0	1414	2175.931049770959	9
0	1417	2176.498876785151	10
0	1419	2184.258300265746	9
0	1422	2184.281445153915	8
0	1425	2186.540998384101	7
0	1428	2189.403264862046	6
0	1430	2189.643687320095	5
0	1432	2189.773629864812	6
0	1435	2193.712837041398	7
0	1438	2194.123250007319	8
0	1440	2194.295942736405	7
0	1443	2201.031998304876	8
0	1445	2203.048525200932	9
0	1447	2204.410395549705	10
0	1449	2205.690956500948	9
0	1452	2212.199070264621	10
0	1454	2213.391718102592	9
0	1457	2213.855604343463	8
0	1460	2214.572500189849	7
0	1463	2215.605234916372	6
0	1465	2216.135444250384	5
0	1467	2227.603947371457	4
0	1469	2230.107558939529	5
0	1472	2235.027510840223	4
0	1474	2235.889933594851	3
0	1476	2236.291872877796	4
0	1479	2236.381144519432	5
0	1482	2244.506777387689	4
0	1484	2246.462688830553	3
0	1486	2246.507301892488	4
0	1489	2247.702167358572	3
0	1491	2252.578366604103	2
0	1493	2258.040952495979	3
0	1496	2264.310258426746	2
0	1498	2274.501401631674	1
0	1500	2274.785662016738	2
0	1503	2286.650122380899	3
0	1506	2288.437947203093	4
0	1509	2295.241825467063	5
0	1512	2299.132186444342	6
0	1515	2300.965850843513	5
0	1517	2306.268279205338	4
0	1519	2326.203717724554	3
0	1521	2331.047736206801	4
0	1524	2334.927111394682	5
0	1527	2334.996832881386	6
0	1530	2339.557375323246	5
0	1532	2340.632016117563	4
0	1534	2367.161703887509	3
0	1536	2377.799377773897	2
0	1538	2382.070670372708	1
0	1540	2391.656502566527	0
0	1542	2399.769307313623	1
0	1545	2400.977759804683	2
0	1548	2406.710151322843	3
0	1551	2408.632661582106	4
0	1554	2410.863556126543	5
0	1557	2415.902231896192	6
0	1560	2421.575851232374	7
0	1563	2426.730736858584	6
0	1565	2434.782617177879	7
0	1568	2438.424445395858	8
0	1570	2440.579799928399	7
0	1573	2445.778718393154	8
0	1575	2453.283278539115	9
0	1577	2457.552767690704	10
0	1579	2457.875537874969	9
0	1582	2460.702162085594	8
0	1585	2464.729850655282	7
0	1588	2466.656999383621	6
0	1590	2469.385430736936	5
0	1592	2469.416734086659	4
0	1594	2469.77102546558	5
0	1597	2473.454882946645	6
0	1600	2479.097056226417	7
0	1603	2480.503179569105	6
0	1605	2481.03336821792	5
0	1607	2487.369722594884	4
0	1609	2488.428564924349	5
0	1612	2493.592225315772	6
0	1615	2499.938116501156	5
0	1617	2501.366716959158	6
0	1620	2504.512802060048	5
0	1622	2507.547936011884	6
0	1625	2520.00387528665	7
0	1628	2520.21724370046	8
0	1630	2520.933483819206	9
0	1632	2525.331522113825	10
0	1634	2525.755934925491	11
0	1636	2532.43900861789	10
0	1639	2534.869899250525	11
0	1641	2535.279907163583	10
0	1644	2538.226485697204	9
0	1647	2538.808946565895	10
0	1649	2541.963399853367	9
0	1652	2548.805387890287	10
0	1654	2549.146017245284	9
0	1657	2553.975000026711	10
0	1659	2559.876636132873	11
0	1661	2562.604018167482	10
0	1664	2564.486720405409	9
0	1667	2567.030722504575	8
0	1670	2569.455623514051	7
0	1673	2571.492282894129	8
0	1675	2582.040952225837	7
0	1678	2582.452285898449	6
0	1680	2582.699677993765	5
0	1682	2583.945028298334	6
0	1685	2590.562840379798	7
0	1688	2593.74692279701	6
0	1690	2595.98930637577	7
0	1693	2597.892476842346	8
0	1695	2603.131411117557	9
0	1697	2603.228076223863	8
0	1700	2604.71597858551	7
0	1703	2606.17330227404	6
0	1705	2613.027350478658	5
0	1707	2618.012086085774	4
0	1709	2619.306076817622	3
0	1711	2621.473658632423	2
0	1713	2623.183855261311	3
0	1716	2629.090744978471	2
0	1718	2632.416197867757	3
0	1721	2634.097331127649	4
0	1724	2648.338311565461	5
0	1727	2650.499271302944	6
0	1730	2650.663845990487	5
0	1732	2652.418873101674	6
0	1735	2653.635216927756	7
0	1738	2655.059087488358	8
0	1740	2656.743237927863	9
0	1742	2668.779156392111	8
0	1745	2668.938882087443	7
0	1748	2673.780810359279	6
0	1750	2674.443382674896	5
0	1752	2676.795225380706	6
0	1755	2679.06981652187	5
0	1757	2686.436793105359	6
0	1760	2691.0762451182	5
0	1762	2691.726505942238	4
0	1764	2695.876219586266	3
0	1766	2702.141326199803	4
0	1769	2704.134018719886	3
0	1771	2708.841578423776	4
0	1774	2711.117613256347	3
0	1776	2715.873499560524	4
0	1779	2722.171229615039	3
0	1781	2723.292315448339	2
0	1783	2725.973789451843	3
0	1786	2730.73626536249	2
0	1788	2752.776667285633	3
0	1791	2754.242612244553	4
0	1794	2754.367457782791	3
0	1796	2757.210640003799	4
0	1799	2762.428114572829	5
0	1802	2765.699750062561	6
0	1805	2769.279645015443	5
0	1807	2771.029459013084	4
0	1809	2780.595280918122	5
0	1812	2782.475695993956	4
0	1814	2793.787673561138	5
0	1817	2794.622917831004	4
0	1819	2800.216827102208	5
0	1822	2813.193794348241	4
0	1824	2813.501436023161	3
0	1826	2819.05046588191	4
0	1829	2820.078431868889	3
0	1831	2835.656289851106	4
0	1834	2839.39553692723	3
0	1836	2840.140729984931	2
0	1838	2840.388333257464	1
0	1840	2854.167214504745	0
0	1842	2862.735053133542	1
0	1845	2863.095241942497	2
0	1848	2864.274906694498	3
0	1851	2866.972804395579	4
0	1854	2869.898159347289	5
0	1857	2872.81282055602	6
0	1860	2878.140911730169	7
0	1863	2884.519882036644	6
0	1865	2885.020294648669	5
0	1867	2893.724272857239	6
0	1870	2894.252641199743	5
0	1872	2895.649613050031	4
0	1874	2896.981614388504	3
0	1876	2897.4263517968	2
0	1878	2900.052873801795	3
0	1881	2909.197971618583	2
0	1883	2910.430460343216	3
0	1886	2910.672043500376	2
0	1888	2910.701083419677	3
0	1891	2912.733510274886	2
0	1893	2914.174414449811	3
0	1896	2917.342251300069	2
0	1898	2921.921350812406	3
0	1901	2926.392169166955	4
0	1904	2927.698837716762	3
0	1906	2928.667222032984	2
0	1908	2936.575531790829	3
0	1911	2950.912059545105	4
0	1914	2951.594277706379	3
0	1916	2957.809553360355	4
0	1919	2958.579641857953	5
0	1922	2958.750788075722	4
0	1924	2961.11626250549	5
0	1927	2962.845853764546	6
0	1930	2964.8195958844	7
0	1933	2964.884497417151	6
0	1935	2967.522092449991	7
0	1938	2968.125862229684	8
0	1940	2974.093484913578	7
0	1943	2974.681544459076	8
0	1945	2977.360104788939	7
0	1948	2977.361053090716	6
0	1950	2985.268402052648	5
0	1952	2986.541872444181	4
0	1954	2997.407673954614	3
0	1956	2997.416003207817	4
0	1959	2998.909343254525	5
0	1962	2999.366477323007	4
0	1964	3002.304004201001	5
0	1967	3004.071523175357	6
0	1970	3007.088903323025	5
0	1972	3008.630689714398	6
0	1975	3016.58897520459	5
0	1977	3024.644497945456	4
0	1979	3025.712678311073	3
0	1981	3028.567736998677	4
0	1984	3037.35802915181	5
0	1987	3038.053564365594	6
0	1990	3038.614310089301	5
0	1992	3039.073671536162	6
0	1995	3044.532866915347	7
0	1998	3052.231633546317	6
0	2000	3061.863487300614	7
0	2003	3065.03184702594	6
0	2005	3068.728372861809	7
0	2008	3072.002434756014	6
0	2010	3072.236556622491	5
0	2012	3085.003388231309	6
0	2015	3085.406563594516	7
0	2018	3089.625277224356	6
0	2020	3090.209429312086	7
0	2023	3092.368827795658	6
0	2025	3095.099803254383	5
0	2027	3107.667081016655	4
0	2029	3114.557644079829	3
0	2031	3115.227518795068	2
0	2033	3115.341699124277	3
0	2036	3115.843131508793	4
0	2039	3117.287458630419	5
0	2042	3120.595778469377	4
0	2044	3121.95741103059	5
0	2047	3122.58753849478	6
0	2050	3128.735038490391	7
0	2053	3129.31321242862	6
0	2055	3137.585100971341	5
0	2057	3139.569887696784	6
0	2060	3139.659635470929	5
0	2062	3143.833456894056	4
0	2064	3147.695527717057	3
0	2066	3150.979104444317	2
0	2068	3152.348742330694	3
0	2071	3159.652863135235	4
0	2074	3165.64853652998	5
0	2077	3180.618491587175	6
0	2080	3183.065416968384	7
0	2083	3198.67412661833	8
0	2085	3201.982457937363	7
0	2088	3203.118867960091	8
0	2090	3208.070985436564	7
0	2093	3214.113478925793	6
0	2095	3215.845171284018	5
0	2097	3218.57543283404	4
0	2099	3221.614979227963	5
0	2102	3229.375717491378	4
0	2104	3233.337872463979	5
0	2107	3240.754118351752	6
0	2110	3242.907441651529	5
0	2112	3258.651826194797	6
0	2115	3258.876352944447	5
0	2117	3260.173862282415	6
0	2120	3263.427071684656	5
0	2122	3263.606063051253	4
0	2124	3274.541840166357	5
0	2127	3285.640184849215	4
0	2129	3288.647209740832	5
0	2132	3292.302833420256	6
0	2135	3292.409828978818	5
0	2137	3294.760419259453	6
0	2140	3300.738068258576	7
0	2143	3303.627528510224	8
0	2145	3308.597775044158	9
0	2147	3309.655633046236	10
0	2149	3310.17760014018	11
0	2151	3312.417767688476	12
0	2153	3312.79302280202	13
0	2155	3315.421209565555	12
0	2158	3317.115577402965	11
0	2161	3319.507836398456	10
0	2164	3319.847588414109	11
0	2166	3321.999486408883	12
0	2168	3324.42186484376	13
0	2170	3327.667659882528	12
0	2173	3328.69740746893	11
0	2176	3329.612830159587	10
0	2179	3341.471719042343	11
0	2181	3343.312953559198	12
0	2183	3343.434790643942	11
0	2186	3345.342667319982	10
0	2189	3348.273976164934	11
0	2191	3356.053065567511	10
0	2194	3359.297649464859	9
0	2197	3363.708586027655	8
0	2200	3366.420212440254	9
0	2202	3367.241268432647	8
0	2205	3370.511337745747	7
0	2208	3388.457523719577	8
0	2210	3389.034282345331	7
0	2213	3389.242359914719	8
0	2215	3391.093855486187	9
0	2217	3391.528576391187	8
0	2220	3392.968595078532	9
0	2222	3393.305082750549	10
0	2224	3402.817781785024	11
0	2226	3404.440530437132	12
0	2228	3409.970048362411	11
0	2231	3412.461915732778	10
0	2234	3414.559283577707	11
0	2236	3416.383424110769	12
0	2238	3423.038716102167	13
0	2240	3423.607897549723	12
0	2243	3426.195805324158	13
0	2245	3428.348960066224	12
0	2248	3437.13998699466	11
0	2251	3438.014802603363	10
0	2254	3439.055799357252	9
0	2257	3448.373758612024	8
0	2260	3449.706163990299	9
0	2262	3453.711313168029	8
0	2265	3462.092527289631	7
0	2268	3464.687246519785	6
0	2270	3467.424395625306	5
0	2272	3467.624124544528	6
0	2275	3489.357996078331	5
0	2277	3491.336420961923	4
0	2279	3495.245640361357	5
0	2282	3500.90554292494	4
0	2284	3505.230544949087	5
0	2287	3508.920266618147	4
0	2289	3513.326654693087	5
0	2292	3515.567125180102	6
0	2295	3520.860310205814	5
0	2297	3520.89596275428	6
0	2300	3525.679513059838	5
0	2302	3527.373066250342	6
0	2305	3530.578345365524	5
0	2307	3534.525697841949	6
0	2310	3536.66590202977	7
0	2313	3542.146690961872	8
0	2315	3543.014945555152	7
0	2318	3545.67037954328	6
0	2320	3545.747723650659	5
0	2322	3551.007667339949	4
0	2324	3551.771627081339	5
0	2327	3576.462955799681	4
0	2329	3585.307937821071	3
0	2331	3586.163585785554	4
0	2334	3595.031544292301	5
0	2337	3597.570798660179	4
0	2339	3608.323473053751	3
0	2341	3609.950613550992	4
0	2344	3610.442006889875	5
0	2347	3612.420040941573	4
0	2349	3617.26131104926	5
0	2352	3619.03752633767	4
0	2354	3621.395362083016	3
0	2356	3628.766927992906	4
0	2359	3632.171535392302	3
0	2361	3637.316799850018	2
0	2363	3642.528309987125	3
0	2366	3646.713714025401	4
0	2369	3659.963631823986	3
0	2371	3662.097134945584	4
0	2374	3667.506205443464	5
0	2377	3668.329210080057	4
0	2379	3669.711835126681	5
0	2382	3671.242505381449	6
0	2385	3673.424258069548	7
0	2388	3676.419431071363	6
0	2390	3679.485529749024	7
0	2393	3688.650442720811	6
0	2395	3692.933779620424	5
0	2397	3693.000140397826	4
0	2399	3696.084307307849	5
0	2402	3702.052796498447	4
0	2404	3708.952056842062	5
0	2407	3716.58459610495	4
0	2409	3721.857803855764	3
0	2411	3721.89442460592	4
0	2414	3723.510170909851	5
0	2417	3726.647725976309	6
0	2420	3727.16794160582	7
0	2423	3735.182646065658	6
0	2425	3735.291053090677	7
0	2428	3743.899965229445	8
0	2430	3745.492423091117	7
0	2433	3748.418379628637	6
0	2435	3756.144091545219	7
0	2438	3761.856756363394	8
0	2440	3762.007722951565	7
0	2443	3767.4548067522	6
0	2445	3773.425053883597	7
0	2448	3780.327395052341	8
0	2450	3780.515303400349	7
0	2453	3782.24769765187	6
0	2455	3794.172551441982	5
0	2457	3808.563499038935	6
0	2460	3814.73076240737	7
0	2463	3815.73872564094	6
0	2465	3817.417522524376	5
0	2467	3819.777941636014	4
0	2469	3827.899581027602	5
0	2472	3830.558237974663	6
0	2475	3832.947238967869	7
0	2478	3836.177821060903	8
0	2480	3838.793874570815	7
0	2483	3852.080840476372	6
0	2485	3853.029843709926	5
0	2487	3865.773582003602	6
0	2490	3867.3698902253	5
0	2492	3868.31071316738	6
0	2495	3869.132925758018	5
0	2497	3871.703557267868	4
0	2499	3874.147344222087	5
0	2502	3878.02642149891	6
0	2505	3879.19106342373	7
0	2508	3879.559120047643	8
0	2510	3880.083755622771	7
0	2513	3884.711584616993	6
0	2515	3884.901025380158	7
0	2518	3888.073548795238	8
0	2520	3895.248746277949	9
0	2522	3912.829903812399	8
0	2525	3918.981902856843	7
0	2528	3919.097741029444	6
0	2530	3927.970636824434	5
0	2532	3930.616910635665	4
0	2534	3936.433062011507	5
0	2537	3936.722491866275	4
0	2539	3942.171118909618	5
0	2542	3944.705234977107	4
0	2544	3945.000606248304	5
0	2547	3947.403024714582	6
0	2550	3954.464287551978	7
0	2553	3957.347105371839	6
0	2555	3966.170795687728	5
0	2557	3980.747980262814	4
0	2559	3982.842122856898	5
0	2562	3983.330748115464	6
0	2565	3983.396714003662	7
0	2568	3985.988016936662	6
0	2570	3986.619026523309	5
0	2572	4000.396346229858	6
0	2575	4005.809183635109	7
0	2578	4007.448335192821	6
0	2580	4008.314104821201	7
0	2583	4010.819051757471	8
0	2585	4010.838665588141	7
0	2588	4019.681206540848	6
0	2590	4032.781860131857	7
0	2593	4033.629184634269	6
0	2595	4049.386424505385	5
0	2597	4051.908276044192	4
0	2599	4058.572872266712	5
0	2602	4059.96536789064	6
0	2605	4066.04843995853	5
0	2607	4068.008496995156	6
0	2610	4069.59692160669	7
0	2613	4070.676935380376	6
0	2615	4077.957051024067	7
0	2618	4088.514075893357	6
0	2620	4089.488770121932	5
0	2622	4093.237320884699	4
0	2624	4095.591189129447	5
0	2627	4098.147690149903	4
0	2629	4103.032332508993	3
0	2631	4110.526024395721	4
0	2634	4113.581425867966	5
0	2637	4113.700470457864	6
0	2640	4120.818389806663	7
0	2643	4121.119628738586	8
0	2645	4121.904216385367	9
0	2647	4124.807325415085	10
0	2649	4125.471094466108	9
0	2652	4125.997686227337	10
0	2654	4143.512928159774	9
0	2657	4147.227880947734	8
0	2660	4149.462956100634	9
0	2662	4150.922879338581	10
0	2664	4156.39267400202	9
0	2667	4158.349117242616	8
0	2670	4161.646151354252	9
0	2672	4165.930358832227	10
0	2674	4168.348401045415	11
0	2676	4174.494226683953	10
0	2679	4176.003575224712	9
0	2682	4177.341925219504	8
0	2685	4177.645586076035	7
0	2688	4185.730410332533	6
0	2690	4191.512004683131	7
0	2693	4192.543414084945	8
0	2695	4200.211693455616	9
0	2697	4204.273839181071	10
0	2699	4217.710209854259	9
0	2702	4219.124510690462	8
0	2705	4219.495238018585	9
0	2707	4224.767424449334	10
0	2709	4225.381631579148	9
0	2712	4225.667697548033	8
0	2715	4229.801893588951	9
0	2717	4233.958935662855	8
0	2720	4240.256250872683	9
0	2722	4241.523090499763	10
0	2724	4242.422394476125	11
0	2726	4246.394969991605	12
0	2728	4253.507396084217	11
0	2731	4254.109017343536	10
0	2734	4259.878450203927	9
0	2737	4260.67781208305	10
0	2739	4263.25459280183	9
0	2742	4270.56994778884	8
0	2745	4281.555059102301	9
0	2747	4282.51983098149	8
0	2750	4286.440958615837	7
0	2753	4288.243292063114	6
0	2755	4290.263687705913	5
0	2757	4290.31205813305	6
0	2760	4294.489721460042	7
0	2763	4296.347728248803	6
0	2765	4297.091322321633	7
0	2768	4298.690163804471	6
0	2770	4301.536078757506	5
0	2772	4306.128675779693	4
0	2774	4310.438043684432	5
0	2777	4310.833700807285	6
0	2780	4315.182272063147	7
0	2783	4317.853757132518	6
0	2785	4318.78670188098	7
0	2788	4322.3140217073	8
0	2790	4329.74734513909	9
0	2792	4331.462121222807	10
0	2794	4332.505687575605	9
0	2797	4339.756884032198	10
0	2799	4345.616930857103	11
0	2801	4347.322558234499	12
0	2803	4350.328295558958	13
0	2805	4351.137407939984	12
0	2808	4351.832814290233	11
0	2811	4353.190714748055	10
0	2814	4366.445552620675	9
0	2817	4368.445786893111	10
0	2819	4372.89562552087	9
0	2822	4374.113812434505	8
0	2825	4382.863313222602	7
0	2828	4384.627039196023	8
0	2830	4395.048007916171	7
0	2833	4397.907637119473	6
0	2835	4399.836221049328	7
0	2838	4402.911703064462	8
0	2840	4404.035648231522	7
0	2843	4412.508594541808	6
0	2845	4413.88559718112	7
0	2848	4415.492175051944	6
0	2850	4417.427255992515	5
0	2852	4422.493427388626	6
0	2855	4424.083707803915	7
0	2858	4424.364236805889	6
0	2860	4430.030482982513	7
0	2863	4431.644814879018	8
0	2865	4432.094834073315	7
0	2868	4432.240066219917	6
0	2870	4434.929021910888	7
0	2873	4440.54676359052	6
0	2875	4441.574591886895	5
0	2877	4443.007982624069	4
0	2879	4443.142934677503	5
0	2882	4443.571440095407	4
0	2884	4444.820858738333	3
0	2886	4461.42387552284	4
0	2889	4462.750861557888	3
0	2891	4468.564183064341	2
0	2893	4470.77551148311	3
0	2896	4474.888663613442	4
0	2899	4478.47787896618	3
0	2901	4480.672656055201	4
0	2904	4485.647704075379	5
0	2907	4489.659878836487	4
0	2909	4491.400281688584	3
0	2911	4498.304345867973	4
0	2914	4499.575720022188	5
0	2917	4500.842963869964	4
0	2919	4507.044947959253	5
0	2922	4513.947235180339	4
0	2924	4520.082295336229	3
0	2926	4521.239679749016	4
0	2929	4527.886216825749	3
0	2931	4533.359179159846	4
0	2934	4537.997086519856	5
0	2937	4539.35174686245	6
0	2940	4539.694001759432	5
0	2942	4544.712729047271	6
0	2945	4544.972285167327	7
0	2948	4551.36258479811	6
0	2950	4553.25575859852	7
0	2953	4555.150382597093	6
0	2955	4557.280410219844	7
0	2958	4558.191812779237	6
0	2960	4558.295584280184	7
0	2963	4570.484891800409	8
0	2965	4576.651263526862	9
0	2967	4578.034167879614	10
0	2969	4579.490159953903	9
0	2972	4579.560132707764	8
0	2975	4580.248363610954	7
0	2978	4588.777190891755	6
0	2980	4589.348117010706	5
0	2982	4590.323400860435	6
0	2985	4590.984792490881	5
0	2987	4594.871864574715	4
0	2989	4598.131564438876	5
0	2992	4598.216434535948	4
0	2994	4599.465506914565	5
0	2997	4599.504626701494	6
0	3000	4603.67540846339	7
0	3003	4603.86490772188	8
0	3005	4605.299806922048	9
0	3007	4605.479497572475	8
0	3010	4607.761157578802	9
0	3012	4611.916134986107	8
0	3015	4613.827197635728	9
0	3017	4614.591874466004	8
0	3020	4619.319071768422	9
0	3022	4621.358695455665	10
0	3024	4624.472685619679	9
0	3027	4624.880978338316	10
0	3029	4626.530321746131	9
0	3032	4631.425337826977	10
0	3034	4638.746750856922	9
0	3037	4644.929843424055	10
0	3039	4647.180764955118	11
0	3041	4651.156101302079	10
0	3044	4652.369470041101	11
0	3046	4653.971218530696	10
0	3049	4654.066707256701	9
0	3052	4658.800197418933	10
0	3054	4660.044741952151	11
0	3056	4660.490816290306	10
0	3059	4663.753445997667	11
0	3061	4672.21043724263	10
0	3064	4678.12574174129	9
0	3067	4679.149321299333	10
0	3069	4679.454272779177	11
0	3071	4679.987845564734	10
0	3074	4680.251112350083	9
0	3077	4680.268138286651	8
0	3080	4681.308201770172	7
0	3083	4687.664475775993	8
0	3085	4688.432385329778	9
0	3087	4688.443629379111	8
0	3090	4691.164859778981	9
0	3092	4692.363799040089	8
0	3095	4704.96388829749	9
0	3097	4706.856238657453	8
0	3100	4719.362392408101	7
0	3103	4722.41486936377	6
0	3105	4727.304337040357	5
0	3107	4729.179950996041	4
0	3109	4733.559837208166	5
0	3112	4742.279612512913	6
0	3115	4748.705761798046	7
0	3118	4752.238752486575	6
0	3120	4754.256091826858	7
0	3123	4758.909072120023	8
0	3125	4759.304726045004	9
0	3127	4764.306839990068	10
0	3129	4765.542238764805	9
0	3132	4775.047656374626	8
0	3135	4784.953826278853	9
0	3137	4785.750352003018	10
0	3139	4791.811434365577	11
0	3141	4791.893308463814	10
0	3144	4797.909920483778	9
0	3147	4798.028501109057	10
0	3149	4806.602115776978	11
0	3151	4811.890062331233	12
0	3153	4821.635582080074	13
0	3155	4822.83813627061	14
0	3157	4823.916721572089	13
0	3160	4824.587162760528	12
0	3163	4825.257675094084	13
0	3165	4828.58469338064	12
0	3168	4828.842426263833	11
0	3171	4828.893455512421	10
0	3174	4829.826797108333	11
0	3176	4836.0401995884	12
0	3178	4838.673567002621	13
0	3180	4840.128092980921	14
0	3182	4843.377860669157	15
0	3184	4845.691192642893	16
0	3186	4845.760948659093	15
0	3189	4845.941672474412	14
0	3192	4856.98788417618	15
0	3194	4860.32284702032	14
0	3197	4860.329379941248	13
0	3200	4867.1319444907	12
0	3203	4871.198761023303	13
0	3205	4875.977082047089	12
0	3208	4882.884618883153	13
0	3210	4882.992163829671	14
0	3212	4886.982860593587	15
0	3214	4887.491797237508	16
0	3216	4889.728508853783	15
0	3219	4892.326402660679	16
0	3221	4893.001723418006	15
0	3224	4896.233158513094	14
0	3227	4906.395116645302	15
0	3229	4906.777076456417	16
0	3231	4908.674243929055	15
0	3234	4910.418499699602	14
0	3237	4911.254367495555	15
0	3239	4914.835593157709	16
0	3241	4916.84875781439	17
0	3243	4917.949444161318	16
0	3246	4918.141239982528	15
0	3249	4919.5767269937	16
0	3251	4921.545725590466	17
0	3253	4926.118506631481	16
0	3256	4936.015003990541	17
0	3258	4936.749606367049	16
0	3261	4937.097197359657	15
0	3264	4938.446249684617	14
0	3267	4940.058000491985	15
0	3269	4945.757986579977	14
0	3272	4946.030944432394	13
0	3275	4947.286357663032	12
0	3278	4948.657777779634	13
0	3280	4950.744724455368	12
0	3283	4959.872539351239	13
0	3285	4960.08669336816	14
0	3287	4965.013996184107	13
0	3290	4966.640917444924	12
0	3293	4966.765999119818	11
0	3296	4969.432721265755	12
0	3298	4970.363675295544	11
0	3301	4972.521416792865	10
0	3304	4979.937086050825	9
0	3307	4981.833724309026	8
0	3310	4982.016004107307	9
0	3312	4985.452072362312	8
0	3315	4992.309698799496	9
0	3317	4995.47844178411	10
0	3319	5001.897479511334	9
0	3322	5006.823280381128	8
0	3325	5010.109442938806	7
0	3328	5017.353180731505	6
0	3330	5018.640480142565	5
0	3332	5021.181729703548	6
0	3335	5021.613046805231	5
0	3337	5028.563368192845	6
0	3340	5038.191754671773	5
0	3342	5045.945100526853	4
0	3344	5046.730152420332	5
0	3347	5047.219129686235	4
0	3349	5053.181723472772	3
0	3351	5056.96401508816	2
0	3353	5057.159488797472	1
0	3355	5065.76148721761	2
0	3358	5069.641170377158	3
0	3361	5075.110975384481	2
0	3363	5084.586674650241	1
0	3365	5089.497088299931	2
0	3368	5096.645338923221	3
0	3371	5101.145079283748	4
0	3374	5101.666318158928	5
0	3377	5106.017559281445	4
0	3379	5115.797697691172	3
0	3381	5120.293487755241	2
0	3383	5124.085535982073	3
0	3386	5124.763256049122	4
0	3389	5129.492164104596	3
0	3391	5137.477865880916	4
0	3394	5141.392548212828	5
0	3397	5149.449199753732	4
0	3399	5150.597746917191	3
0	3401	5166.473922931481	4
0	3404	5171.68013596465	5
0	3407	5172.100029256628	4
0	3409	5174.964019990753	5
0	3412	5175.455360490204	6
0	3415	5178.212250128038	5
0	3417	5180.812137727782	6
0	3420	5185.403686548876	5
0	3422	5187.097029341843	4
0	3424	5189.924963777724	5
0	3427	5190.980471847698	4
0	3429	5197.939575398109	3
0	3431	5202.35643245313	2
0	3433	5202.38265916999	3
0	3436	5222.440306099192	2
0	3438	5233.653555896216	3
0	3441	5237.39772054177	4
0	3444	5243.253380122282	3
0	3446	5248.91209670863	4
0	3449	5250.155765275436	5
0	3452	5251.700101268707	6
0	3455	5254.280377563952	7
0	3458	5256.53239048688	8
0	3460	5259.27537303666	7
0	3463	5261.450360274613	6
0	3465	5261.943909664785	7
0	3468	5264.555390595518	6
0	3470	5265.742771013528	5
0	3472	5267.735715122459	6
0	3475	5271.512563691978	7
0	3478	5272.98911962137	6
0	3480	5274.634057515729	7
0	3483	5277.112126383457	8
0	3485	5279.270932780564	7
0	3488	5280.156732173726	8
0	3490	5281.019632719941	9
0	3492	5283.348284250783	10
0	3494	5286.621776129687	9
0	3497	5289.353971499277	8
0	3500	5290.048683162727	9
0	3502	5292.081901374099	8
0	3505	5297.396787819875	9
0	3507	5300.534144329612	8
0	3510	5304.334869593312	7
0	3513	5307.731444969271	8
0	3515	5310.324364595101	9
0	3517	5325.083251698309	10
0	3519	5328.697319058499	9
0	3522	5329.167630903072	10
0	3524	5330.345991339563	9
0	3527	5333.18093434126	8
0	3530	5334.257747884437	7
0	3533	5339.381879430888	6
0	3535	5340.501115828721	5
0	3537	5352.108861999717	4
0	3539	5361.046684291702	3
0	3541	5370.71942369095	2
0	3543	5373.21456615568	3
0	3546	5381.524046956905	2
0	3548	5384.837394061603	3
0	3551	5397.949870862964	4
0	3554	5398.317916067633	5
0	3557	5401.731198273386	6
0	3560	5412.795606222519	7
0	3563	5415.143847148035	6
0	3565	5415.316787029707	7
0	3568	5419.311031794836	6
0	3570	5421.156035490686	5
0	3572	5430.099180282803	6
0	3575	5432.644191745415	5
0	3577	5438.693516551475	4
0	3579	5443.51715466594	3
0	3581	5447.516844912291	4
0	3584	5449.667387736189	5
0	3587	5449.901316486194	4
0	3589	5456.326959276597	3
0	3591	5461.791258204255	2
0	3593	5471.809876616255	3
0	3596	5472.671679643483	2
0	3598	5472.679249990124	1
0	3600	5475.502359509147	2
0	3603	5486.096681685871	1
0	3605	5503.891697849262	0
0	3607	5506.971432737256	1
0	3610	5509.013599315729	2
0	3613	5524.379171671191	1
0	3615	5534.114341872654	2
0	3618	5541.050724005301	3
0	3621	5555.700265740789	2
0	3623	5562.444987505936	3
0	3626	5566.794205440981	4
0	3629	5567.131888951998	3
0	3631	5569.47875301835	4
0	3634	5570.917993043003	5
0	3637	5586.800147498476	4
0	3639	5587.989737455146	5
0	3642	5597.095067889273	6
0	3645	5599.128438611485	5
0	3647	5601.944804254195	4
0	3649	5614.209574399275	5
0	3652	5616.206978820459	4
0	3654	5637.036882918152	5
0	3657	5644.642161887898	4
0	3659	5658.249491087042	5
0	3662	5666.133294020008	6
0	3665	5675.084125080424	5
0	3667	5675.233958040935	6
0	3670	5677.492520687082	5
0	3672	5689.27489040123	4
0	3674	5693.744643570668	3
0	3676	5698.699731803746	2
0	3678	5701.974974794191	3
0	3681	5710.408273879434	2
0	3683	5715.074134452737	3
0	3686	5720.250794036394	2
0	3688	5723.407242517545	3
0	3691	5723.511201588828	4
0	3694	5724.375887393401	3
0	3696	5725.504227766205	2
0	3698	5732.412541043974	3
0	3701	5736.989622098953	2
0	3703	5737.978428299157	3
0	3706	5741.171078750959	4
0	3709	5741.234842181154	3
0	3711	5747.960340765565	2
0	3713	5752.043806221388	1
0	3715	5755.832033565051	0
0	3717	5757.749405475285	1
0	3720	5775.291885059417	0
0	3722	5778.757491996976	1
0	3725	5781.422630298784	0
0	3727	5784.819774608066	1
0	3730	5786.675689865538	2
0	3733	5801.377122711584	3
0	3736	5803.134463338062	2
0	3738	5803.894787941588	3
0	3741	5804.240224048024	2
0	3743	5808.309992340171	3
0	3746	5811.502495255578	4
0	3749	5813.481061176935	5
0	3752	5818.17030347767	6
0	3755	5823.125452352364	7
0	3758	5837.863130237898	8
0	3760	5837.889046433355	9
0	3762	5839.115133242634	8
0	3765	5844.078794343195	7
0	3768	5848.997265901093	8
0	3770	5854.111104810749	9
0	3772	5858.3843950039	10
0	3774	5862.360001650603	11
0	3776	5869.446747322581	10
0	3779	5870.220976100739	11
0	3781	5870.396355807163	12
0	3783	5881.33989250262	11
0	3786	5881.860678965242	10
0	3789	5884.787100087087	9
0	3792	5885.506803918863	8
0	3795	5888.534505310956	7
0	3798	5889.005518377932	6
0	3800	5904.191332531367	7
0	3803	5907.909634001482	8
0	3805	5911.276239539502	7
0	3808	5913.235317034525	8
0	3810	5919.347532814818	7
0	3813	5922.76912369634	6
0	3815	5931.297391356796	5
0	3817	5938.688345921175	4
0	3819	5939.88831839523	3
0	3821	5950.969917572671	2
0	3823	5952.713776028589	3
0	3826	5959.173550823899	4
0	3829	5963.594008536667	3
0	3831	5967.756183026016	4
0	3834	5972.796390842035	3
0	3836	5977.563456587699	4
0	3839	5979.596112030438	5
0	3842	5983.146770924436	4
0	3844	5986.284218532456	5
0	3847	5988.990457378096	6
0	3850	6001.340828088275	7
0	3853	6006.089798655411	8
0	3855	6007.523527496194	7
0	3858	6008.285301016111	8
0	3860	6014.971568626817	7
0	3863	6016.546933966074	8
0	3865	6024.215784954433	7
0	3868	6028.315151032094	8
0	3870	6029.194654618509	7
0	3873	6032.4824698285	6
0	3875	6032.844416031371	7
0	3878	6033.436268520396	8
0	3880	6033.821308197129	9
0	3882	6040.3189280049	10
0	3884	6062.254994584592	11
0	3886	6068.991681888253	12
0	3888	6075.369951555422	13
0	3890	6082.512253094506	14
0	3892	6089.180301991424	15
0	3894	6092.795184953224	14
0	3897	6096.942774044136	15
0	3899	6101.649087922539	14
0	3902	6110.304682218862	15
0	3904	6112.159113933126	16
0	3906	6117.615189208124	17
0	3908	6118.137974863728	16
0	3911	6121.332582363836	17
0	3913	6128.522888870083	16
0	3916	6130.632888505117	17
0	3918	6136.561437385107	16
0	3921	6137.622216112892	15
0	3924	6138.441135896385	16
0	3926	6145.183297514004	15
0	3929	6148.450325339161	16
0	3931	6149.758315874377	17
0	3933	6153.600568123312	16
0	3936	6153.919917040518	17
0	3938	6155.564604127935	16
0	3941	6156.582151322089	15
0	3944	6161.645715666208	14
0	3947	6167.920438140572	15
0	3949	6173.241550530962	14
0	3952	6174.512529574934	13
0	3955	6177.221152700277	12
0	3958	6187.971649995004	11
0	3961	6188.072296191975	10
0	3964	6188.489962557667	9
0	3967	6195.616662199098	8
0	3970	6201.367840600156	9
0	3972	6203.322642508067	10
0	3974	6210.214627789233	11
0	3976	6216.060201170262	10
0	3979	6217.776641519077	11
0	3981	6225.878622969504	12
0	3983	6232.800614421975	13
0	3985	6233.294151971922	14
0	3987	6233.429216582629	13
0	3990	6238.44608536056	14
0	3992	6240.784411384179	13
0	3995	6243.771840697005	12
0	3998	6247.686068992148	13
0	4000	6248.996786923975	14
0	4002	6257.056045252694	15
0	4004	6258.520044416044	14
0	4007	6259.182303003218	13
0	4010	6260.069903116518	14
0	4012	6266.063704898399	13
0	4015	6274.662738089942	12
0	4018	6275.165906564284	13
0	4020	6277.368424773287	12
0	4023	6283.520525503647	11
0	4026	6286.625302287729	10
0	4029	6290.058947279246	9
0	4032	6290.839450318441	8
0	4035	6292.541856633735	9
0	4037	6314.154598101962	8
0	4040	6315.841111505987	9
0	4042	6315.885283409633	8
0	4045	6316.033194984819	7
0	4048	6317.204941683816	8
0	4050	6318.279145160291	7
0	4053	6322.554297814024	6
0	4055	6324.638798289317	5
0	4057	6326.568106722099	4
0	4059	6344.885963929465	5
0	4062	6348.189826784792	4
0	4064	6361.059691381172	5
0	4067	6365.849885899795	4
0	4069	6383.920736333274	5
0	4072	6394.317196755219	6
0	4075	6399.952637635367	7
0	4078	6401.904579760672	8
0	4080	6405.252371045217	9
0	4082	6406.813879768754	8
0	4085	6424.664489865317	7
0	4088	6425.833634165681	6
0	4090	6428.23758920963	5
0	4092	6431.107734776468	6
0	4095	6433.464182684649	7
0	4098	6440.236156070758	8
0	4100	6441.627166664672	7
0	4103	6444.800383187498	6
0	4105	6446.348370793507	7
0	4108	6446.375420204868	8
0	4110	6447.87180712421	9
0	4112	6449.450305489342	8
0	4115	6467.240444814912	9
0	4117	6469.000664976626	8
0	4120	6470.493618358641	7
0	4123	6470.532500015684	8
0	4125	6474.692674274097	9
0	4127	6476.05404530256	8
0	4130	6478.462249050351	7
0	4133	6479.9426439353	8
0	4135	6482.327030898876	9
0	4137	6483.385010828115	8
0	4140	6486.516722939284	7
0	4143	6490.173488564105	6
0	4145	6493.404388368297	7
0	4148	6497.552602432597	8
0	4150	6506.124286608165	9
0	4152	6509.341501148382	8
0	4155	6514.113189303952	9
0	4157	6514.410962714069	8
0	4160	6515.881350549868	9
0	4162	6516.95336453772	10
0	4164	6517.372238025301	9
0	4167	6520.897874985297	8
0	4170	6521.195781291744	7
0	4173	6521.451743373969	8
0	4175	6526.77567433715	7
0	4178	6539.225874774196	6
0	4180	6540.678405094902	5
0	4182	6544.434106995302	4
0	4184	6548.750166149833	5
0	4187	6557.86312815843	4
0	4189	6565.6386014845	3
0	4191	6566.574666057377	2
0	4193	6566.866076171095	3
0	4196	6570.562846656569	2
0	4198	6580.147918194169	3
0	4201	6580.244549590817	4
0	4204	6592.700893030673	3
0	4206	6593.022403056655	4
0	4209	6599.006778275521	3
0	4211	6605.179805200189	2
0	4213	6611.958498943292	3
0	4216	6616.277390953784	4
0	4219	6618.950128315725	5
0	4222	6623.748395203264	6
0	4225	6627.553271414698	7
0	4228	6628.318016985052	6
0	4230	6630.982532857995	7
0	4233	6637.803362604038	6
0	4235	6651.799324385331	7
0	4238	6656.370958030431	6
0	4240	6661.605106050767	7
0	4243	6669.319939062441	6
0	4245	6672.143599443821	7
0	4248	6674.487506505587	8
0	4250	6676.916954705302	7
0	4253	6683.222891334469	6
0	4255	6686.200985619166	7
0	4258	6691.680783040787	6
0	4260	6693.488384339812	5
0	4262	6695.295327173756	4
0	4264	6695.43549348257	5
0	4267	6699.179289992978	4
0	4269	6702.671813673798	5
0	4272	6703.810348917382	6
0	4275	6708.726670542884	7
0	4278	6712.010964567835	6
0	4280	6724.092544373332	7
0	4283	6726.264004324944	6
0	4285	6726.750961009357	7
0	4288	6729.556066676777	8
0	4290	6736.335009079524	7
0	4293	6740.795300717201	8
0	4295	6741.200928417849	9
0	4297	6747.532684009346	8
0	4300	6748.061347806103	9
0	4302	6748.98313168572	10
0	4304	6751.904256022713	9
0	4307	6752.642610589214	8
0	4310	6760.132019440126	9
0	4312	6762.4711273224	8
0	4315	6764.827021346234	7
0	4318	6765.766921460476	8
0	4320	6767.434752684941	7
0	4323	6778.006545032499	6
0	4325	6782.719049941306	7
0	4328	6787.119780001383	8
0	4330	6793.735000515926	9
0	4332	6795.852913397414	10
0	4334	6796.67859513038	11
0	4336	6799.651729136649	10
0	4339	6801.458661976384	9
0	4342	6804.623476842669	10
0	4344	6807.560129022083	11
0	4346	6807.834223455865	10
0	4349	6808.853018715982	9
0	4352	6809.418021710695	8
0	4355	6809.887068516588	9
0	4357	6814.485132304658	10
0	4359	6815.310457072316	11
0	4361	6815.356144167366	12
0	4363	6825.134641721557	11
0	4366	6825.285558745131	12
0	4368	6825.769055257455	13
0	4370	6826.364433114649	12
0	4373	6827.209162456822	13
0	4375	6828.042054763563	12
0	4378	6831.952079493972	11
0	4381	6832.504436299802	10
0	4384	6833.91237152089	11
0	4386	6835.080413408995	10
0	4389	6843.784596534686	11
0	4391	6848.284714881631	12
0	4393	6853.90499373422	11
0	4396	6854.184286333734	12
0	4398	6855.796544937967	13
0	4400	6856.023987008962	14
0	4402	6861.547237847212	15
0	4404	6866.137866091679	14
0	4407	6870.815673080656	15
0	4409	6875.352368919667	16
0	4411	6878.212439704943	15
0	4414	6881.756621458785	14
0	4417	6885.507375136075	13
0	4420	6885.681149776385	14
0	4422	6889.17229796542	13
0	4425	6890.175723284734	14
0	4427	6903.7974942611	13
0	4430	6909.181193132946	14
0	4432	6909.570141024216	13
0	4435	6911.271092891195	12
0	4438	6911.981175907693	13
0	4440	6916.683525399472	12
0	4443	6919.196976168583	13
0	4445	6921.099724661347	12
0	4448	6925.81618590015	13
0	4450	6928.71608404549	12
0	4453	6934.567169170569	13
0	4455	6937.981977426056	12
0	4458	6943.74784812613	11
0	4461	6944.248715738413	10
0	4464	6946.305812009831	11
0	4466	6956.38671568855	10
0	4469	6957.224625201659	9
0	4472	6961.494373881935	8
0	4475	6962.405504770624	7
0	4478	6962.770685866776	8
0	4480	6967.547854797447	9
0	4482	6972.769380336114	10
0	4484	6981.629379852814	11
0	4486	6984.8126296618	10
0	4489	6985.384153099642	9
0	4492	6993.01064589088	10
0	4494	6993.127564938838	9
0	4497	6995.79991752527	8
0	4500	6998.94753198981	9
0	4502	6999.002635348605	10
0	4504	6999.721165685876	11
0	4506	7003.401507518501	10
0	4509	7003.657283927845	11
0	4511	7005.575074666138	10
0	4514	7007.04194439769	9
0	4517	7016.157006716467	10
0	4519	7018.867941305198	9
0	4522	7033.583407399405	8
0	4525	7034.469136143162	9
0	4527	7045.624937120042	10
0	4529	7053.734423621682	11
0	4531	7055.08841242777	12
0	4533	7056.602792007995	11
0	4536	7062.326958628683	12
0	4538	7064.958159305454	13
0	4540	7071.743927733182	12
0	4543	7076.589452408705	13
0	4545	7079.449751539926	12
0	4548	7080.978358160284	11
0	4551	7081.396220063921	10
0	4554	7082.050918005182	9
0	4557	7089.139863150186	8
0	4560	7089.699217733035	7
0	4563	7091.350296142602	6
0	4565	7092.288399750255	5
0	4567	7093.802921253041	4
0	4569	7101.543599185357	3
0	4571	7106.060235302011	4
0	4574	7112.564738607381	3
0	4576	7118.358075310002	4
0	4579	7118.478697517924	3
0	4581	7127.671254616703	2
0	4583	7132.415111233466	3
0	4586	7144.895335004288	2
0	4588	7147.507864180667	3
0	4591	7158.552699179094	2
0	4593	7159.660381433731	1
0	4595	7162.981821033639	2
0	4598	7168.76301376048	3
0	4601	7189.143260766493	2
0	4603	7190.682028133188	3
0	4606	7193.148164640048	4
0	4609	7199.047409813672	3
0	4611	7200.365339511654	4
0	4614	7208.579948741753	5
0	4617	7210.237309085298	4
0	4619	7212.423461476183	5
0	4622	7218.521566229891	6
0	4625	7218.928290631488	5
0	4627	7224.430190259937	6
0	4630	7224.970296279698	5
0	4632	7227.078571856583	6
0	4635	7228.152331318824	5
0	4637	7232.155915133544	6
0	4640	7233.458743688015	7
0	4643	7242.624311882482	6
0	4645	7248.386980422763	5
0	4647	7251.848154830885	4
0	4649	7260.341226939347	3
0	4651	7270.414223870238	4
0	4654	7272.498503837098	5
0	4657	7272.631337487153	4
0	4659	7278.576128218578	5
0	4662	7280.285834056134	4
0	4664	7285.173012773994	3
0	4666	7286.76312991834	2
0	4668	7287.630857075775	3
0	4671	7290.417496750073	4
0	4674	7294.850969351579	3
0	4676	7295.033801921744	2
0	4678	7299.73027653043	3
0	4681	7299.794008740624	2
0	4683	7300.854037416514	1
0	4685	7301.552036454039	2
0	4688	7303.785169274031	3
0	4691	7304.442753071725	4
0	4694	7314.201759208812	3
0	4696	7319.777651215182	4
0	4699	7320.331910955076	3
0	4701	7323.610957576399	4
0	4704	7325.446694882749	3
0	4706	7331.002469391704	4
0	4709	7332.479207219399	3
0	4711	7355.919606655206	2
0	4713	7383.998558510998	3
0	4716	7385.35678629532	2
0	4718	7404.136138159137	3
0	4721	7407.094499144096	4
0	4724	7412.587841597544	3
0	4726	7418.008782108764	4
0	4729	7418.477506774691	5
0	4732	7419.062936620185	6
0	4735	7442.356283876877	7
0	4738	7445.940525929861	8
0	4740	7446.01349078923	9
0	4742	7450.175260076852	8
0	4745	7463.984982041065	9
0	4747	7464.252011869374	10
0	4749	7466.651666416221	11
0	4751	7469.83277136504	12
0	4753	7470.313948232128	13
0	4755	7471.854549551478	14
0	4757	7473.936552529421	13
0	4760	7475.181823890978	12
0	4763	7475.590021541698	11
0	4766	7478.133851867952	10
0	4769	7479.675562487987	11
0	4771	7483.538384820175	10
0	4774	7486.785759580547	9
0	4777	7486.793938965657	8
0	4780	7492.501263467483	9
0	4782	7495.585924678659	8
0	4785	7496.72353745552	7
0	4788	7505.090158779837	8
0	4790	7505.776423918838	7
0	4793	7506.965306926925	6
0	4795	7509.951754692435	7
0	4798	7511.000913211675	6
0	4800	7516.129965791085	5
0	4802	7519.339888226273	4
0	4804	7543.269917163077	3
0	4806	7544.108595402583	4
0	4809	7546.080401298646	5
0	4812	7546.144836169082	4
0	4814	7551.567335425414	5
0	4817	7553.840382599127	6
0	4820	7559.27691203181	7
0	4823	7564.418163212811	6
0	4825	7567.003049618695	7
0	4828	7567.405404509744	8
0	4830	7574.644976401541	7
0	4833	7582.513236457451	8
0	4835	7585.959917774524	7
0	4838	7586.17031831636	8
0	4840	7586.52720454805	7
0	4843	7598.973847674462	6
0	4845	7599.214137168314	5
0	4847	7606.575377048767	6
0	4850	7611.056991743302	5
0	4852	7612.083074669519	6
0	4855	7616.132753648947	7
0	4858	7631.411633006246	8
0	4860	7632.474581706693	9
0	4862	7634.888175874003	10
0	4864	7636.139841512812	9
0	4867	7638.071218701923	8
0	4870	7646.434597637334	7
0	4873	7653.0323179639	6
0	4875	7658.390942115857	7
0	4878	7658.520938493799	6
0	4880	7659.28338798804	7
0	4883	7659.998363714891	6
0	4885	7666.835259553191	5
0	4887	7670.072631856246	6
0	4890	7670.856503416788	5
0	4892	7684.099076267289	4
0	4894	7690.822877019164	5
0	4897	7692.279249303273	4
0	4899	7697.072596410509	3
0	4901	7699.057846307428	4
0	4904	7699.74924587517	5
0	4907	7704.110842353121	6
0	4910	7707.018246961342	5
0	4912	7726.68225995409	6
0	4915	7728.304879725295	5
0	4917	7730.286972107387	6
0	4920	7732.172071697726	7
0	4923	7734.338521554326	6
0	4925	7734.43198874801	5
0	4927	7737.346818965154	6
0	4930	7738.666861638719	5
0	4932	7742.566805713818	6
0	4935	7744.135547942048	7
0	4938	7747.200316972601	6
0	4940	7747.978063087545	7
0	4943	7748.143008300895	6
0	4945	7753.040384074879	5
0	4947	7757.855582498082	6
0	4950	7761.266827959463	5
0	4952	7767.031930624564	4
0	4954	7770.628597053977	5
0	4957	7773.787137917291	4
0	4959	7774.161171010867	3
0	4961	7775.867502187275	4
0	4964	7777.963894531626	3
0	4966	7786.272206109381	4
0	4969	7789.121574276778	5
0	4972	7789.14660193794	4
0	4974	7789.265577861848	5
0	4977	7790.698614310494	6
0	4980	7791.887013837217	5
0	4982	7794.072665919113	4
0	4984	7805.697360255527	5
0	4987	7808.930496288321	6
0	4990	7810.248113568025	5
0	4992	7820.503097954566	4
0	4994	7823.817640918439	3
0	4996	7827.688435177337	4
0	4999	7828.371468510714	5
0	5002	7832.769148306062	6
0	5005	7834.599069823415	5
0	5007	7834.681035041478	6
0	5010	7834.765093274542	7
0	5013	7838.104670749792	6
0	5015	7843.03009085113	7
0	5018	7860.255515786495	8
0	5020	7861.929494963884	7
0	5023	7862.112541267151	8
0	5025	7862.697661057361	7
0	5028	7862.752032336724	6
0	5030	7864.314990983433	7
0	5033	7872.754656762911	6
0	5035	7875.781614954014	5
0	5037	7880.083181102927	4
0	5039	7907.208319174445	3
0	5041	7915.824890682743	2
0	5043	7925.498917748383	3
0	5046	7930.410038264815	4
0	5049	7930.64778861204	5
0	5052	7931.429112243631	6
0	5055	7933.948960954444	7
0	5058	7939.29760648724	6
0	5060	7940.729234287382	5
0	5062	7955.891219997899	6
0	5065	7956.223651204825	5
0	5067	7956.239318372753	4
0	5069	7958.96387195851	5
0	5072	7959.952995739736	6
0	5075	7961.375793234079	5
0	5077	7961.936472460095	6
0	5080	7970.959385379056	5
0	5082	7985.121058622608	6
0	5085	7988.931643395424	7
0	5088	7990.858840738819	6
0	5090	7991.571176600881	7
0	5093	7993.130743892627	8
0	5095	7995.384244792473	9
0	5097	7995.999262999778	8
0	5100	7996.304422381108	9
0	5102	7999.041063223267	8
0	5105	8001.294930909329	9
0	5107	8001.788435437116	8
0	5110	8002.554459188255	9
0	5112	8005.185681669701	8
0	5115	8008.416013613825	9
0	5117	8008.634330513856	8
0	5120	8008.69462852367	7
0	5123	8009.458656938222	6
0	5125	8014.971380349812	5
0	5127	8023.086465485691	4
0	5129	8032.005700047006	5
0	5132	8035.242442028242	4
0	5134	8035.261770006925	5
0	5137	8038.748922304206	4
0	5139	8051.284580043338	5
0	5142	8055.915370009807	4
0	5144	8058.634366975765	5
0	5147	8059.658254984797	4
0	5149	8062.809085610943	3
0	5151	8066.250724049312	2
0	5153	8084.916655401442	3
0	5156	8091.521181908828	4
0	5159	8092.199021939129	5
0	5162	8099.070194690188	4
0	5164	8105.944842792053	3
0	5166	8108.261041495516	2
0	5168	8111.55691996764	3
0	5171	8112.161569788544	4
0	5174	8116.937006709372	5
0	5177	8122.020771810194	6
0	5180	8122.316696282855	7
0	5183	8123.541395807038	6
0	5185	8130.384824379978	5
0	5187	8135.313463884109	6
0	5190	8136.622541626056	5
0	5192	8142.45839606065	4
0	5194	8144.192523454563	3
0	5196	8145.857425183389	4
0	5199	8154.288008085059	5
0	5202	8154.738395927489	4
0	5204	8167.40461879654	3
0	5206	8171.182908400032	2
0	5208	8171.345615696126	1
0	5210	8187.38182904204	2
0	5213	8189.481400411482	3
0	5216	8194.373992943711	4
0	5219	8195.628754048453	5
0	5222	8197.183048422166	6
0	5225	8197.43600693977	7
0	5228	8199.909227015168	8
0	5230	8203.632649886921	7
0	5233	8213.738278009302	6
0	5235	8215.10820668286	7
0	5238	8215.854003841088	6
0	5240	8216.458907373079	5
0	5242	8216.756459177469	6
0	5245	8221.768862650286	5
0	5247	8222.519217552602	4
0	5249	8223.521254649773	3
0	5251	8223.840937308647	4
0	5254	8232.237595899417	3
0	5256	8232.241348622212	4
0	5259	8234.31045545943	5
0	5262	8234.550077239282	6
0	5265	8242.358036843067	7
0	5268	8246.599691710246	8
0	5270	8247.402681213713	7
0	5273	8256.338550303932	6
0	5275	8267.124667234397	7
0	5278	8275.38513305127	6
0	5280	8275.60613967314	5
0	5282	8284.498005467629	4
0	5284	8285.704183090341	3
0	5286	8286.935230468461	2
0	5288	8288.602855620439	1
0	5290	8308.161180348382	2
0	5293	8309.272668954945	3
0	5296	8309.366515243317	2
0	5298	8309.980195379944	3
0	5301	8311.565891489284	4
0	5304	8312.251528963929	5
0	5307	8313.189401942481	6
0	5310	8313.71389541657	7
0	5313	8315.417450069448	8
0	5315	8319.634708349295	9
0	5317	8342.244878200963	10
0	5319	8342.616278347041	11
0	5321	8344.324807502207	12
0	5323	8344.518078403056	11
0	5326	8349.048305270544	10
0	5329	8350.846300082786	9
0	5332	8354.352635068471	10
0	5334	8360.941012241107	9
0	5337	8364.066782278197	10
0	5339	8374.302347765568	9
0	5342	8381.223714287591	10
0	5344	8381.381325681501	9
0	5347	8403.842738031255	8
0	5350	8405.472545543674	7
0	5353	8405.557004197749	8
0	5355	8409.75465826218	9
0	5357	8413.628796573671	10
0	5359	8415.016368527617	11
0	5361	8417.602896148374	10
0	5364	8419.916340103309	11
0	5366	8420.60040283332	10
0	5369	8422.406345283676	9
0	5372	8422.942226791382	10
0	5374	8423.652564657497	9
0	5377	8429.400681419738	8
0	5380	8430.834269843407	7
0	5383	8434.471560387091	6
0	5385	8440.173237366567	7
0	5388	8442.762150321769	8
0	5390	8443.765148199993	7
0	5393	8444.46374587934	6
0	5395	8446.247408125201	5
0	5397	8447.544007155577	4
0	5399	8447.691678962102	3
0	5401	8456.737529743458	2
0	5403	8460.354316842201	1
0	5405	8464.839282995881	2
0	5408	8469.772030080544	1
0	5410	8470.675058154721	2
0	5413	8472.444591478575	3
0	5416	8472.457330332587	2
0	5418	8472.99759079554	3
0	5421	8478.434960162082	4
0	5424	8487.377220688302	5
0	5427	8490.454897808825	6
0	5430	8492.901098152852	7
0	5433	8493.523216147946	6
0	5435	8501.006381548089	5
0	5437	8503.356640455866	4
0	5439	8507.505353669721	5
0	5442	8508.755085140181	4
0	5444	8514.266959863946	5
0	5447	8514.577910659928	6
0	5450	8520.204875874276	5
0	5452	8520.342957984328	6
0	5455	8521.466270499515	5
0	5457	8534.891806099063	4
0	5459	8538.776156469289	5
0	5462	8543.945153244649	6
0	5465	8547.766885247253	5
0	5467	8548.179516125455	6
0	5470	8549.873619808434	5
0	5472	8550.587869438509	6
0	5475	8557.078803813357	5
0	5477	8557.874879937418	6
0	5480	8558.698020291398	7
0	5483	8569.58168285467	6
0	5485	8570.188717614815	7
0	5488	8574.98028539706	6
0	5490	8590.964543946755	5
0	5492	8591.003685653795	6
0	5495	8592.456814268091	7
0	5498	8595.933786617026	6
0	5500	8596.796893402296	7
0	5503	8599.315378496312	8
0	5505	8601.354676315661	9
0	5507	8602.839649195341	8
0	5510	8607.772970162699	9
0	5512	8615.67777996432	8
0	5515	8617.355171911203	7
0	5518	8617.594908329146	8
0	5520	8618.004925461547	7
0	5523	8621.610869050954	6
0	5525	8630.456541971457	7
0	5528	8630.465245816516	6
0	5530	8631.891726717531	5
0	5532	8638.476154056423	6
0	5535	8640.517629113752	5
0	5537	8645.387669489681	6
0	5540	8647.680164192795	5
0	5542	8648.685992304694	4
0	5544	8649.26599392836	5
0	5547	8654.685049683386	6
0	5550	8654.855849092549	5
0	5552	8663.563899475255	4
0	5554	8675.017862514711	5
0	5557	8680.1257106486	4
0	5559	8681.354064319054	5
0	5562	8681.937138785664	4
0	5564	8684.080069705196	3
0	5566	8684.363258601593	4
0	5569	8686.687007299551	3
0	5571	8700.262190857489	2
0	5573	8702.298531779177	3
0	5576	8702.48580328051	4
0	5579	8705.562937833178	5
0	5582	8711.398354021675	6
0	5585	8712.128803545518	5
0	5587	8715.404720882053	6
0	5590	8718.725397441162	5
0	5592	8722.129697019023	4
0	5594	8722.342177000697	3
0	5596	8726.295994620846	4
0	5599	8738.016502469481	5
0	5602	8740.645381118064	6
0	5605	8742.037394179411	7
0	5608	8743.516339775999	8
0	5610	8745.74666480996	7
0	5613	8749.646317900678	6
0	5615	8750.585498574024	5
0	5617	8751.41799981035	6
0	5620	8757.851251559142	7
0	5623	8767.637591098632	8
0	5625	8769.240886598643	9
0	5627	8769.252378463246	8
0	5630	8779.224870876425	9
0	5632	8779.761606949151	8
0	5635	8783.810375365013	7
0	5638	8785.173445004265	8
0	5640	8786.763417341007	9
0	5642	8794.381844243483	8
0	5645	8798.812795835411	9
0	5647	8802.488877613079	8
0	5650	8803.658054604902	9
0	5652	8805.116741208121	8
0	5655	8811.889081868617	7
0	5658	8815.029889175219	6
0	5660	8822.218565047915	7
0	5663	8828.915878718918	6
0	5665	8830.756358906435	7
0	5668	8831.556301038891	6
0	5670	8833.60092004628	7
0	5673	8836.082728445693	8
0	5675	8848.430082182343	9
0	5677	8848.911403659019	8
0	5680	8849.465104742591	7
0	5683	8859.16504547149	8
0	5685	8860.842146119869	9
0	5687	8865.988110674378	8
0	5690	8878.262367932677	7
0	5693	8878.379779534067	8
0	5695	8878.412572297993	7
0	5698	8878.63136929958	8
0	5700	8884.135782688845	9
0	5702	8884.518420109117	10
0	5704	8884.902673726042	11
0	5706	8900.287109751398	10
0	5709	8900.438910931235	11
0	5711	8900.615090162482	12
0	5713	8902.968750922063	11
0	5716	8903.053141617043	10
0	5719	8903.824581329553	11
0	5721	8905.274380768272	10
0	5724	8906.925182990386	9
0	5727	8910.311703332854	10
0	5729	8917.431677918591	9
0	5732	8919.398369358756	8
0	5735	8921.872935258837	9
0	5737	8929.048491643651	10
0	5739	8936.634340153061	9
0	5742	8940.668757175363	10
0	5744	8943.472199506903	11
0	5746	8945.555736987625	10
0	5749	8945.569227437544	11
0	5751	8947.803218661626	12
0	5753	8949.56240063186	13
0	5755	8953.519441384862	12
0	5758	8953.914214187234	11
0	5761	8955.00755344441	10
0	5764	8959.393767313219	9
0	5767	8964.248516071813	10
0	5769	8970.021210352159	9
0	5772	8971.707642875839	8
0	5775	8972.853838617476	7
0	5778	8982.358244244896	6
0	5780	8988.747427518307	5
0	5782	8995.221993942962	6
0	5785	9001.226870616018	7
0	5788	9001.951209853844	6
0	5790	9003.218557257517	7
0	5793	9004.491406371946	6
0	5795	9019.151632047907	5
0	5797	9019.459211219735	6
0	5800	9026.716345853861	7
0	5803	9029.948204947079	6
0	5805	9034.588244494938	7
0	5808	9036.67617514961	6
0	5810	9040.231969910799	5
0	5812	9044.898424117277	4
0	5814	9048.046079911125	5
0	5817	9051.89142159864	4
0	5819	9055.200565264285	3
0	5821	9059.644869201317	4
0	5824	9069.069398353465	5
0	5827	9073.030144259311	6
0	5830	9073.733065853995	5
0	5832	9074.954120074451	4
0	5834	9078.906823905696	5
0	5837	9084.694827965176	4
0	5839	9092.331780037485	3
0	5841	9096.351452248182	2
0	5843	9100.879519441192	3
0	5846	9103.469863508093	4
0	5849	9106.802092715446	5
0	5852	9114.7238243436	6
0	5855	9118.322428038451	5
0	5857	9120.930172279798	4
0	5859	9122.213762056515	3
0	5861	9122.43270018943	4
0	5864	9124.892708451399	5
0	5867	9127.021507331792	6
0	5870	9131.439361404102	7
0	5873	9132.793877171662	8
0	5875	9132.966895978464	9
0	5877	9137.871486259205	8
0	5880	9141.401563668222	7
0	5883	9150.551994113393	6
0	5885	9158.915076099137	7
0	5888	9168.285421738476	8
0	5890	9172.326978418229	7
0	5893	9174.27624780686	8
0	5895	9180.007117325499	7
0	5898	9189.145923890852	8
0	5900	9189.656290225968	7
0	5903	9190.702097853859	6
0	5905	9201.017987601536	5
0	5907	9203.193632263474	6
0	5910	9203.492195977916	5
0	5912	9210.361141725741	4
0	5914	9213.933204053487	3
0	5916	9214.951906136683	4
0	5919	9215.779327378003	5
0	5922	9222.628223913256	6
0	5925	9225.617927480937	5
0	5927	9227.127665534391	6
0	5930	9229.1495253066	7
0	5933	9232.241016557386	8
0	5935	9233.393094275047	7
0	5938	9235.098527038785	8
0	5940	9235.172752063535	7
0	5943	9238.570452974545	8
0	5945	9239.339276292764	9
0	5947	9249.592161801628	10
0	5949	9252.56348637637	9
0	5952	9253.58245529643	8
0	5955	9255.662318417788	7
0	5958	9257.208306612437	6
0	5960	9274.503604334863	5
0	5962	9276.87941008417	6
0	5965	9280.479573837798	7
0	5968	9280.80367182798	6
0	5970	9282.306557148351	5
0	5972	9289.962578021334	6
0	5975	9294.721483211739	7
0	5978	9303.229437621985	6
0	5980	9304.222762464446	7
0	5983	9304.297643341505	6
0	5985	9315.683616265874	7
0	5988	9326.821182180395	6
0	5990	9331.929065742149	5
0	5992	9333.106912569784	6
0	5995	9333.587016606744	5
0	5997	9336.467244821249	6
0	6000	9340.336795851506	7
0	6003	9351.272595122045	8
0	6005	9358.548540617302	9
0	6007	9358.753392026641	8
0	6010	9359.610840545104	7
0	6013	9362.561700535823	6
0	6015	9370.456731795898	5
0	6017	9374.206654414071	6
0	6020	9376.59685555218	7
0	6023	9377.834762399386	8
0	6025	9382.159928097754	9
0	6027	9387.705373066718	8
0	6030	9392.501341387425	9
0	6032	9392.967530394465	10
0	6034	9403.736088946819	11
0	6036	9405.444461676976	10
0	6039	9407.102785936617	9
0	6042	9410.871874593764	8
0	6045	9431.544473283387	9
0	6047	9432.871476893568	10
0	6049	9433.409093139063	11
0	6051	9433.894086473017	10
0	6054	9437.937564952646	9
0	6057	9442.379501394058	8
0	6060	9444.443699196095	7
0	6063	9450.639515276852	6
0	6065	9456.566526655444	5
0	6067	9458.868326576326	4
0	6069	9460.983762405849	3
0	6071	9462.551559314353	4
0	6074	9474.199894832154	3
0	6076	9484.837597297432	4
0	6079	9488.689348598779	3
0	6081	9491.356857996671	2
0	6083	9500.662856001814	3
0	6086	9501.405542739376	4
0	6089	9504.218256540245	5
0	6092	9512.29688952077	4
0	6094	9513.809893433556	3
0	6096	9518.642475903374	4
0	6099	9520.708267477186	3
0	6101	9521.793464622049	4
0	6104	9528.736358072749	5
0	6107	9532.721958468173	6
0	6110	9536.609550185532	5
0	6112	9546.229553174315	6
0	6115	9548.953715604166	7
0	6118	9551.346880294807	6
0	6120	9552.044216602608	5
0	6122	9559.962554214604	6
0	6125	9560.583050708301	5
0	6127	9560.940200879607	6
0	6130	9564.755609075468	5
0	6132	9567.343779106302	4
0	6134	9570.226602194135	5
0	6137	9570.797073334172	4
0	6139	9580.131593905495	3
0	6141	9581.180962127572	4
0	6144	9582.327314999479	3
0	6146	9583.959545800375	4
0	6149	9587.171353201917	3
0	6151	9591.441087031449	2
0	6153	9594.322546760037	3
0	6156	9599.205887470563	2
0	6158	9603.308733064889	3
0	6161	9614.469789787111	2
0	6163	9615.080476643011	3
0	6166	9616.373853830909	2
0	6168	9625.389043922234	3
0	6171	9634.984435349014	4
0	6174	9636.59971786795	5
0	6177	9643.092288482093	4
0	6179	9646.225484717221	5
0	6182	9647.305444666504	4
0	6184	9651.532221370499	3
0	6186	9653.442305678339	4
0	6189	9660.285396962274	3
0	6191	9662.733460901188	4
0	6194	9667.54809691238	5
0	6197	9680.198361518865	4
0	6199	9682.18708514199	5
0	6202	9683.500855139676	4
0	6204	9683.644766045524	3
0	6206	9684.056990476196	4
0	6209	9684.991421912942	5
0	6212	9690.38542827935	4
0	6214	9698.182333074139	3
0	6216	9722.601249327079	4
0	6219	9727.43534798266	3
0	6221	9727.676117894458	2
0	6223	9728.709491281116	1
0	6225	9740.681628544159	0
0	6227	9741.489676931169	1
0	6230	9742.398275395838	2
0	6233	9746.565683654458	3
0	6236	9753.949224426452	4
0	6239	9757.964826440291	3
0	6241	9758.335992643272	4
0	6244	9758.616002428412	5
0	6247	9759.66601039043	6
0	6250	9770.286879094788	7
0	6253	9776.220382922984	6
0	6255	9781.67865629476	5
0	6257	9781.811811525836	4
0	6259	9788.137152729348	5
0	6262	9792.196396631641	6
0	6265	9795.597354246901	7
0	6268	9795.902486360649	6
0	6270	9797.238130209166	5
0	6272	9800.684678619661	6
0	6275	9801.384033410932	5
0	6277	9810.722093688454	4
0	6279	9815.438399508884	5
0	6282	9827.400926546727	6
0	6285	9836.699943683577	7
0	6288	9839.001613338679	6
0	6290	9842.020455088623	5
0	6292	9858.074486104213	6
0	6295	9861.409131084159	5
0	6297	9865.258959212762	6
0	6300	9866.280705689664	5
0	6302	9869.444758277479	6
0	6305	9871.964306304701	7
0	6308	9873.371858199826	8
0	6310	9877.458823014382	7
0	6313	9890.497839507645	6
0	6315	9895.39224057186	7
0	6318	9897.307237825641	8
0	6320	9905.969570857445	7
0	6323	9911.915619272623	6
0	6325	9914.333396315907	5
0	6327	9928.483584103285	6
0	6330	9932.597723423256	7
0	6333	9935.606715796504	6
0	6335	9942.223626411354	7
0	6338	9943.037468258097	6
0	6340	9958.077718570381	7
0	6343	9965.360301639939	6
0	6345	9971.46466441299	5
0	6347	9973.005835553178	4
0	6349	9974.387610432878	5
0	6352	9979.322554597459	6
0	6355	9983.91469202766	5
0	6357	9986.717952103704	6
0	6360	9990.205369178237	7
0	6363	9994.706713688981	8
0	6365	9996.643732525728	7
0	6368	9997.629274645946	8
0	6370	10001.266701904704	7
0	6373	10009.457418016162	6
0	6375	10010.310207848088	5
0	6377	10015.742199899835	6
0	6380	10027.194523827909	7
0	6383	10035.250154640706	8
0	6385	10041.57367408843	9
0	6387	10046.406435989454	10
0	6389	10046.419224747934	9
0	6392	10046.680070467909	10
0	6394	10047.758343407422	11
0	6396	10047.943924433927	12
0	6398	10051.271392412701	11
0	6401	10053.262934101472	10
0	6404	10056.823510768072	9
0	6407	10056.876118138789	8
0	6410	10059.111456502886	7
0	6413	10061.173107762303	6
0	6415	10063.236250238401	7
0	6418	10064.16043400686	6
0	6420	10071.558321940129	5
0	6422	10072.800921935173	6
0	6425	10074.760500731956	5
0	6427	10079.180679368427	6
0	6430	10082.865130091748	7
0	6433	10087.327085241942	6
0	6435	10088.880736802968	7
0	6438	10090.672824519055	8
0	6440	10091.67132829732	9
0	6442	10091.7697682131	8
0	6445	10097.755256875856	7
0	6448	10098.118696779153	6
0	6450	10102.31224721538	7
0	6453	10111.048837908153	6
0	6455	10124.985410141696	7
0	6458	10125.86547960021	8
0	6460	10127.053121390502	7
0	6463	10131.553558573648	8
0	6465	10136.91487126787	9
0	6467	10143.446844411828	10
0	6469	10145.040907634474	9
0	6472	10145.883635889235	8
0	6475	10147.303868808183	7
0	6478	10153.920110021568	6
0	6480	10155.816851972912	7
0	6483	10158.021116764384	6
0	6485	10159.209590334378	5
0	6487	10159.816908932126	6
0	6490	10166.265051466363	7
0	6493	10166.561456493117	8
0	6495	10168.696455567995	9
0	6497	10180.733199147416	10
0	6499	10181.112151203199	9
0	6502	10185.299354585237	10
0	6504	10192.358406653368	11
0	6506	10206.792526913723	12
0	6508	10206.964226382263	13
0	6510	10208.000899475662	14
0	6512	10208.520502448945	13
0	6515	10213.406904224627	12
0	6518	10213.98483679855	11
0	6521	10216.818717628162	10
0	6524	10219.965018469066	11
0	6526	10223.80301068906	12
0	6528	10229.480341325567	13
0	6530	10233.585128310911	12
0	6533	10242.849178931415	11
0	6536	10243.289105889243	12
0	6538	10260.901638974473	11
0	6541	10260.972065061345	10
0	6544	10266.03313235537	11
0	6546	10266.99059932937	12
0	6548	10267.08126788789	11
0	6551	10267.112673633504	12
0	6553	10275.850545204901	13
0	6555	10277.066406465186	14
0	6557	10278.386384800316	13
0	6560	10280.453224771705	12
0	6563	10287.873300134828	11
0	6566	10290.936761456984	10
0	6569	10291.134932238374	9
0	6572	10294.066118632872	8
0	6575	10298.604852957038	9
0	6577	10302.335300355757	8
0	6580	10303.936228964755	7
0	6583	10309.595598288348	6
0	6585	10310.228219037004	7
0	6588	10317.318073340042	6
0	6590	10323.587746012102	5
0	6592	10324.039829371756	4
0	6594	10329.586733880538	5
0	6597	10330.85778326853	6
0	6600	10336.799128208971	5
0	6602	10338.800714719137	4
0	6604	10348.781605761555	3
0	6606	10353.512592540226	4
0	6609	10356.600795909794	5
0	6612	10356.933883161892	4
0	6614	10360.071432224103	5
0	6617	10360.638543890996	4
0	6619	10362.245604705834	3
0	6621	10365.143602793848	4
0	6624	10369.068165818244	5
0	6627	10374.200204757327	6
0	6630	10378.502887328364	7
0	6633	10391.336503438324	8
0	6635	10394.629481148926	7
0	6638	10398.410223814082	8
0	6640	10399.2339518446	9
0	6642	10403.036371378256	10
0	6644	10413.973207933551	9
0	6647	10417.218267294768	10
0	6649	10418.963584434962	11
0	6651	10426.675481946459	12
0	6653	10428.70669905457	13
0	6655	10439.266800352767	12
0	6658	10441.958611269753	13
0	6660	10442.984666332796	14
0	6662	10445.750580841869	13
0	6665	10447.641153961151	14
0	6667	10447.758240623715	15
0	6669	10455.324877608349	14
0	6672	10458.408851293807	13
0	6675	10464.589703356089	14
0	6677	10478.449904438192	13
0	6680	10479.074899763678	12
0	6683	10480.866160831566	13
0	6685	10487.952530416921	12
0	6688	10489.227881559168	11
0	6691	10490.553490171295	12
0	6693	10498.773967112439	13
0	6695	10499.957404598102	14
0	6697	10500.036687432	15
0	6699	10506.951750809464	16
0	6701	10518.973440828107	17
0	6703	10521.771934122176	16
0	6706	10527.855174146751	17
0	6708	10533.091824352054	18
0	6710	10537.321486036836	19
0	6712	10540.126259370691	20
0	6714	10540.935631137571	21
0	6716	10544.556567865654	20
0	6719	10546.312197574914	21
0	6721	10548.876582775833	20
0	6724	10550.308533698282	21
0	6726	10550.638005974547	20
0	6729	10553.69194735518	19
0	6732	10558.157850751862	18
0	6735	10562.658279378729	19
0	6737	10566.351705386562	18
0	6740	10576.617519056977	17
0	6743	10577.407860503906	16
0	6746	10583.286528145745	15
0	6749	10585.557309466468	16
0	6751	10585.592246325033	15
0	6754	10589.60846186566	14
0	6757	10589.625760584883	15
0	6759	10591.070740387954	14
0	6762	10591.173461638831	15
0	6764	10593.383300254201	14
0	6767	10595.202867222031	15
0	6769	10602.979997170622	14
0	6772	10606.967907868209	13
0	6775	10611.129835857645	12
0	6778	10614.781703775056	13
0	6780	10615.531976634888	12
0	6783	10619.009522779822	11
0	6786	10622.889285896284	12
0	6788	10624.945205886569	13
0	6790	10632.361968438587	14
0	6792	10633.003648071479	15
0	6794	10633.226394172426	16
0	6796	10634.189084928682	17
0	6798	10636.726262986169	16
0	6801	10638.339924403086	15
0	6804	10640.183761688348	16
0	6806	10645.572460311013	17
0	6808	10647.941163518597	16
0	6811	10649.800579491959	15
0	6814	10654.804989699182	14
0	6817	10655.419021105413	15
0	6819	10659.98946552735	16
0	6821	10661.154600411419	15
0	6824	10666.067979575125	14
0	6827	10670.33873151527	13
0	6830	10670.741411877588	12
0	6833	10670.968856910058	13
0	6835	10677.390723982376	12
0	6838	10681.154722339316	11
0	6841	10684.148669563192	10
0	6844	10687.023048329689	9
0	6847	10690.628982019589	10
0	6849	10691.407627878905	9
0	6852	10692.762906092513	8
0	6855	10699.795605557598	7
0	6858	10713.299941675476	6
0	6860	10714.319267991604	7
0	6863	10717.955040634823	8
0	6865	10718.938610004674	7
0	6868	10721.968431922904	6
0	6870	10726.851134809561	7
0	6873	10734.15449319628	8
0	6875	10734.842074568383	9
0	6877	10739.097789861009	8
0	6880	10742.738593176221	9
0	6882	10742.916505603441	10
0	6884	10747.726776554952	9
0	6887	10751.254210666762	10
0	6889	10755.581019064687	9
0	6892	10759.509113087342	8
0	6895	10761.212478733651	7
0	6898	10766.440115943265	6
0	6900	10769.545405085834	5
0	6902	10769.839421199052	4
0	6904	10771.68314226935	5
0	6907	10775.181264359076	6
0	6910	10779.193662834722	5
0	6912	10786.341003239317	4
0	6914	10788.119369925075	3
0	6916	10799.207785818971	4
0	6919	10801.933576812402	5
0	6922	10802.229446919218	4
0	6924	10807.869474421494	5
0	6927	10812.436107778182	6
0	6930	10813.73173165844	5
0	6932	10815.212535112973	6
0	6935	10817.302119388553	5
0	6937	10818.858434160862	6
0	6940	10820.287112637764	5
0	6942	10821.474415036246	4
0	6944	10824.732827808002	5
0	6947	10826.257235919273	6
0	6950	10830.430138852788	5
0	6952	10838.971822831214	6
0	6955	10847.991024539416	5
0	6957	10860.433907577331	6
0	6960	10860.621102433088	5
0	6962	10860.844845620443	4
0	6964	10863.358188760869	5
0	6967	10885.895981949239	4
0	6969	10886.289461361913	3
0	6971	10889.3349981028	2
0	6973	10909.097134159597	1
0	6975	10912.654336974116	2
0	6978	10912.872254278595	1
0	6980	10917.773570209254	2
0	6983	10919.471959070762	1
0	6985	10923.035532130643	0
0	6987	10932.461644397885	1
0	6990	10935.736502138773	2
0	6993	10937.429003349098	3
0	6996	10945.488638352985	4
0	6999	10960.7576223997	3
0	7001	10966.902077267927	2
0	7003	10968.591843348557	1
0	7005	10968.625619976939	2
0	7008	10985.279693065643	1
0	7010	10991.118618166625	2
0	7013	10994.710487907026	3
0	7016	11015.580252887033	4
0	7019	11022.193995923593	3
0	7021	11023.662083537264	2
0	7023	11037.289507568018	3
0	7026	11045.624626602225	4
0	7029	11049.613703990939	5
0	7032	11050.807181934544	6
0	7035	11054.72957492421	7
0	7038	11054.818875421834	8
0	7040	11056.649677632479	7
0	7043	11057.630163211034	6
0	7045	11058.272159069494	5
0	7047	11059.270862696285	4
0	7049	11065.636897802368	3
0	7051	11074.579671040195	4
0	7054	11078.921611446239	3
0	7056	11082.719113188206	4
0	7059	11083.931175941694	3
0	7061	11087.986275942404	2
0	7063	11100.092967059013	3
0	7066	11104.172866161318	2
0	7068	11116.191533275418	1
0	7070	11126.283010756768	2
0	7073	11126.757933508826	3
0	7076	11141.456109100825	4
0	7079	11141.469148457744	3
0	7081	11144.952578726843	4
0	7084	11146.541313197368	3
0	7086	11163.076926862706	4
0	7089	11164.215390697216	5
0	7092	11165.459829273501	6
0	7095	11173.971788831159	7
0	7098	11175.904158402516	8
0	7100	11182.424279918835	9
0	7102	11183.442097794921	8
0	7105	11186.190231864944	7
0	7108	11187.74907367968	8
0	7110	11194.052557893825	7
0	7113	11201.491782224074	8
0	7115	11203.059819192934	9
0	7117	11203.158623377932	8
0	7120	11204.151386102257	7
0	7123	11206.897593552122	6
0	7125	11207.741612200199	5
0	7127	11209.554197887192	6
0	7130	11212.873144702019	7
0	7133	11215.609952479158	6
0	7135	11217.449641471858	7
0	7138	11219.129197483298	8
0	7140	11220.67859167098	7
0	7143	11221.080233698163	8
0	7145	11221.534204580726	7
0	7148	11222.479104741157	6
0	7150	11226.353730480283	7
0	7153	11227.069899810089	8
0	7155	11230.686365851126	9
0	7157	11233.661243226625	8
0	7160	11235.772523830584	7
0	7163	11235.899938895881	6
0	7165	11241.144904250183	7
0	7168	11242.721799674676	6
0	7170	11243.023003300182	5
0	7172	11249.864600335302	6
0	7175	11253.494981954672	5
0	7177	11266.096457904551	6
0	7180	11271.672439932966	5
0	7182	11272.014779908578	6
0	7185	11275.776382409554	7
0	7188	11275.987157042718	8
0	7190	11276.199298505217	7
0	7193	11278.769105435974	8
0	7195	11280.303679192208	7
0	7198	11282.9592779742	8
0	7200	11292.226548879892	9
0	7202	11297.96444193884	10
0	7204	11300.070738096301	11
0	7206	11302.223962944528	10
0	7209	11302.516129454372	9
0	7212	11305.539667686028	8
0	7215	11306.024811515394	9
0	7217	11308.961309566745	8
0	7220	11309.186898820896	9
0	7222	11312.591612364367	10
0	7224	11318.094616467027	9
0	7227	11326.185364432771	10
0	7229	11331.452700406578	9
0	7232	11335.189841587161	10
0	7234	11336.229588003746	9
0	7237	11342.17606583417	10
0	7239	11343.021534708264	9
0	7242	11347.146385164822	8
0	7245	11349.715452987862	9
0	7247	11351.110628960566	8
0	7250	11352.121423327484	7
0	7253	11353.767663440834	6
0	7255	11356.773307977914	7
0	7258	11357.041412194461	8
0	7260	11359.302716980467	9
0	7262	11365.424361363322	8
0	7265	11368.705651343	9
0	7267	11373.571832666318	8
0	7270	11373.910774643235	7
0	7273	11380.839452799091	6
0	7275	11382.706548359171	5
0	7277	11387.213266750462	6
0	7280	11389.231155988705	5
0	7282	11396.479836463242	6
0	7285	11396.608423374389	7
0	7288	11400.807250572048	8
0	7290	11401.040948385612	9
0	7292	11403.507340487632	8
0	7295	11405.957193984466	7
0	7298	11417.298397718205	6
0	7300	11417.817451985162	7
0	7303	11418.201914288502	6
0	7305	11429.175345765755	7
0	7308	11436.758860637605	6
0	7310	11438.850977790835	7
0	7313	11445.601372511015	8
0	7315	11449.390210925738	9
0	7317	11450.560365650344	10
0	7319	11454.3457258308	9
0	7322	11455.342266902479	8
0	7325	11461.491322973628	9
0	7327	11461.624770453887	8
0	7330	11461.860863912897	7
0	7333	11465.586530299744	6
0	7335	11466.465120301095	5
0	7337	11469.122370686392	6
0	7340	11469.84210649833	7
0	7343	11470.410064914712	6
0	7345	11473.294987430669	7
0	7348	11475.210945815512	6
0	7350	11477.616594684122	7
0	7353	11477.881761978565	8
0	7355	11479.460634595353	7
0	7358	11480.004400573609	6
0	7360	11480.686792102515	7
0	7363	11483.125268358919	8
0	7365	11489.555664706342	7
0	7368	11491.970310600891	8
0	7370	11492.816797396649	7
0	7373	11507.60863675195	6
0	7375	11508.339039040302	5
0	7377	11527.337267596759	4
0	7379	11528.706864572995	5
0	7382	11540.085193464054	4
0	7384	11542.594762843486	3
0	7386	11545.409105321208	4
0	7389	11559.494304108262	5
0	7392	11560.822624390107	4
0	7394	11561.381348746363	5
0	7397	11562.886129685914	4
0	7399	11564.629972760112	5
0	7402	11567.405724708428	4
0	7404	11577.285710508563	3
0	7406	11577.46997858707	4
0	7409	11578.900317505876	5
0	7412	11579.056370080047	6
0	7415	11581.592589458085	7
0	7418	11582.244506744173	6
0	7420	11585.314358751009	5
0	7422	11585.872456171046	4
0	7424	11587.228156503527	5
0	7427	11588.904329760625	6
0	7430	11590.851271957676	7
0	7433	11593.088862380085	6
0	7435	11603.871706288489	7
0	7438	11604.005969913925	6
0	7440	11606.310960286368	5
0	7442	11606.321414686586	6
0	7445	11607.591720646595	5
0	7447	11611.889900041341	6
0	7450	11617.921337351114	5
0	7452	11624.682495944954	6
0	7455	11624.833974502472	5
0	7457	11631.829432067328	6
0	7460	11632.327515310834	5
0	7462	11634.609077531653	6
0	7465	11646.540270965741	7
0	7468	11649.607549325573	6
0	7470	11650.122374577971	7
0	7473	11652.144714513789	8
0	7475	11652.562293508029	7
0	7478	11654.60738541333	6
0	7480	11658.938099199324	5
0	7482	11664.296399071354	6
0	7485	11664.902143669518	5
0	7487	11670.88840264646	6
0	7490	11674.801621775134	5
0	7492	11679.913000651424	4
0	7494	11680.541489224725	3
0	7496	11681.815932328952	4
0	7499	11682.731908729159	5
0	7502	11686.194396379777	4
0	7504	11689.619423864646	5
0	7507	11692.478458998072	6
0	7510	11700.917535245954	7
0	7513	11706.188931419372	6
0	7515	11706.286823250468	5
0	7517	11708.545741842804	4
0	7519	11710.105830534359	3
0	7521	11712.149505294761	4
0	7524	11712.828361772227	3
0	7526	11714.563931363157	2
0	7528	11721.801521914993	3
0	7531	11733.176929464182	4
0	7534	11735.004941189137	3
0	7536	11737.617386693814	4
0	7539	11740.084252858605	3
0	7541	11744.341346276014	4
0	7544	11748.00623345154	3
0	7546	11754.953374774027	4
0	7549	11757.819500599532	3
0	7551	11763.389927949873	2
0	7553	11769.152665885048	3
0	7556	11777.080135171015	4
0	7559	11779.694390100163	5
0	7562	11790.894591982103	4
0	7564	11794.502604507586	5
0	7567	11798.554602959365	4
0	7569	11803.905957044911	3
0	7571	11805.737518649097	2
0	7573	11806.2372553572	3
0	7576	11813.175582835054	4
0	7579	11818.854484547555	3
0	7581	11819.019542772636	4
0	7584	11822.409287287423	5
0	7587	11823.52272022384	4
0	7589	11826.230852864744	5
0	7592	11830.817644077849	4
0	7594	11834.812114653596	5
0	7597	11835.187859664938	6
0	7600	11840.64428232288	5
0	7602	11841.337395097181	6
0	7605	11842.13464171563	7
0	7608	11847.827365111334	8
0	7610	11851.362931596781	7
0	7613	11854.737155505474	6
0	7615	11857.22523597051	7
0	7618	11858.598016617387	8
0	7620	11859.937400363329	9
0	7622	11861.972772704213	8
0	7625	11865.410205665816	9
0	7627	11867.103338711371	8
0	7630	11868.176645506033	9
0	7632	11869.489440121765	8
0	7635	11872.029981125488	9
0	7637	11872.516926122953	8
0	7640	11872.606810351979	7
0	7643	11874.878145702358	6
0	7645	11879.203691567064	5
0	7647	11880.404870435772	4
0	7649	11904.084555791588	3
0	7651	11907.615112409089	4
0	7654	11909.372030652941	5
0	7657	11917.926629811974	4
0	7659	11923.604138269705	5
0	7662	11934.673814813023	4
0	7664	11941.728810208622	3
0	7666	11945.935221945095	4
0	7669	11948.721146512979	3
0	7671	11955.921270783651	4
0	7674	11961.89816612455	3
0	7676	11965.582086801825	4
0	7679	11974.374952396396	5
0	7682	11976.950400688509	4
0	7684	11982.518028357916	3
0	7686	11983.429797031761	4
0	7689	11986.924333474316	5
0	7692	12001.188455154518	6
0	7695	12012.176585032618	5
0	7697	12013.185475500993	6
0	7700	12019.399402811625	5
0	7702	12019.959004471728	4
0	7704	12025.962169793307	5
0	7707	12033.738682807363	4
0	7709	12040.252262544044	3
0	7711	12041.790119314128	4
0	7714	12042.726035633678	5
0	7717	12044.473170731586	6
0	7720	12045.332746636269	5
0	7722	12053.725169382666	6
0	7725	12054.067896937496	5
0	7727	12056.956917185079	4
0	7729	12060.061471544144	5
0	7732	12065.059905878007	6
0	7735	12069.580715363743	5
0	7737	12071.873358179224	6
0	7740	12072.410738238362	5
0	7742	12072.850139369917	6
0	7745	12073.071255515512	5
0	7747	12075.295690542668	4
0	7749	12079.12825965914	5
0	7752	12080.906013182553	6
0	7755	12081.813364626743	5
0	7757	12089.953419746126	6
0	7760	12090.517414418587	7
0	7763	12093.14559459136	8
0	7765	12093.431006768067	7
0	7768	12098.564411931245	8
0	7770	12108.768215329051	7
0	7773	12110.451940923009	8
0	7775	12116.028375498256	9
0	7777	12116.944618189634	8
0	7780	12119.235826767498	7
0	7783	12121.056434129373	8
0	7785	12121.124612337156	7
0	7788	12122.767068533715	8
0	7790	12134.949750231886	7
0	7793	12136.37953904403	8
0	7795	12138.042281997232	9
0	7797	12138.857356783138	10
0	7799	12139.834320361538	9
0	7802	12141.714799230021	10
0	7804	12144.652366720846	9
0	7807	12147.139754176416	10
0	7809	12148.211030043332	9
0	7812	12148.521887043069	10
0	7814	12150.325795845812	9
0	7817	12157.509519520133	8
0	7820	12161.954329426633	9
0	7822	12165.039508237898	8
0	7825	12165.957511221106	9
0	7827	12166.53142513244	10
0	7829	12166.56809109942	9
0	7832	12173.277913626719	10
0	7834	12174.924890103032	11
0	7836	12178.425956763329	12
0	7838	12180.859765779738	11
0	7841	12185.263744717534	10
0	7844	12187.42947468701	11
0	7846	12189.237487776448	10
0	7849	12193.203795732184	11
0	7851	12200.755635793043	12
0	7853	12202.143917416506	11
0	7856	12205.469873684206	10
0	7859	12207.24204632355	9
0	7862	12210.997861025151	10
0	7864	12215.567034409943	11
0	7866	12221.276790217756	10
0	7869	12221.372597910734	11
0	7871	12221.675472058765	12
0	7873	12222.589655141775	11
0	7876	12229.191504706769	10
0	7879	12230.821962338711	11
0	7881	12232.694746533337	10
0	7884	12240.619411386791	9
0	7887	12245.148677705239	8
0	7890	12246.639180196299	7
0	7893	12251.899042455536	6
0	7895	12252.414354660776	5
0	7897	12261.05630999567	6
0	7900	12262.288707258571	5
0	7902	12282.995352500095	4
0	7904	12295.908544623762	5
0	7907	12299.574205518213	4
0	7909	12301.360419889432	5
0	7912	12310.541121891176	4
0	7914	12312.213645535882	3
0	7916	12312.402315974428	4
0	7919	12312.673794527256	5
0	7922	12318.68262566262	4
0	7924	12327.761862574878	3
0	7926	12329.774389757518	4
0	7929	12329.842981078653	3
0	7931	12335.208270073075	2
0	7933	12354.938903578207	3
0	7936	12358.410325948463	4
0	7939	12358.951836629607	5
[...]
1	7415	11581.592589458085	0
1	7418	11582.244506744173	0
1	7420	11585.314358751009	0
1	7422	11585.872456171046	0
1	7424	11587.228156503527	0
1	7427	11588.904329760625	0
1	7430	11590.851271957676	0
1	7433	11593.088862380085	0
1	7435	11603.871706288489	0
1	7438	11604.005969913925	0
1	7440	11606.310960286368	0
1	7442	11606.321414686586	0
1	7445	11607.591720646595	0
1	7447	11611.889900041341	0
1	7450	11617.921337351114	0
1	7452	11624.682495944954	0
1	7455	11624.833974502472	0
1	7457	11631.829432067328	0
1	7460	11632.327515310834	0
1	7462	11634.609077531653	0
1	7465	11646.540270965741	0
1	7468	11649.607549325573	0
1	7470	11650.122374577971	0
1	7473	11652.144714513789	1
1	7475	11652.562293508029	0
1	7478	11654.60738541333	0
1	7480	11658.938099199324	0
1	7482	11664.296399071354	0
1	7485	11664.902143669518	0
1	7487	11670.88840264646	0
1	7490	11674.801621775134	0
1	7492	11679.913000651424	0
1	7494	11680.541489224725	0
1	7496	11681.815932328952	0
1	7499	11682.731908729159	0
1	7502	11686.194396379777	0
1	7504	11689.619423864646	0
1	7507	11692.478458998072	0
1	7510	11700.917535245954	0
1	7513	11706.188931419372	0
1	7515	11706.286823250468	0
1	7517	11708.545741842804	0
1	7519	11710.105830534359	0
1	7521	11712.149505294761	0
1	7524	11712.828361772227	0
1	7526	11714.563931363157	0
1	7528	11721.801521914993	0
1	7531	11733.176929464182	0
1	7534	11735.004941189137	0
1	7536	11737.617386693814	0
1	7539	11740.084252858605	0
1	7541	11744.341346276014	0
1	7544	11748.00623345154	0
1	7546	11754.953374774027	0
1	7549	11757.819500599532	0
1	7551	11763.389927949873	0
1	7553	11769.152665885048	0
1	7556	11777.080135171015	0
1	7559	11779.694390100163	0
1	7562	11790.894591982103	0
1	7564	11794.502604507586	0
1	7567	11798.554602959365	0
1	7569	11803.905957044911	0
1	7571	11805.737518649097	0
1	7573	11806.2372553572	0
1	7576	11813.175582835054	0
1	7579	11818.854484547555	0
1	7581	11819.019542772636	0
1	7584	11822.409287287423	0
1	7587	11823.52272022384	0
1	7589	11826.230852864744	0
1	7592	11830.817644077849	0
1	7594	11834.812114653596	0
1	7597	11835.187859664938	0
1	7600	11840.64428232288	0
1	7602	11841.337395097181	0
1	7605	11842.13464171563	0
1	7608	11847.827365111334	1
1	7610	11851.362931596781	0
1	7613	11854.737155505474	0
1	7615	11857.22523597051	0
1	7618	11858.598016617387	1
1	7620	11859.937400363329	2
1	7622	11861.972772704213	1
1	7625	11865.410205665816	2
1	7627	11867.103338711371	1
1	7630	11868.176645506033	2
1	7632	11869.489440121765	1
1	7635	11872.029981125488	2
1	7637	11872.516926122953	1
1	7640	11872.606810351979	0
1	7643	11874.878145702358	0
1	7645	11879.203691567064	0
1	7647	11880.404870435772	0
1	7649	11904.084555791588	0
1	7651	11907.615112409089	0
1	7654	11909.372030652941	0
1	7657	11917.926629811974	0
1	7659	11923.604138269705	0
1	7662	11934.673814813023	0
1	7664	11941.728810208622	0
1	7666	11945.935221945095	0
1	7669	11948.721146512979	0
1	7671	11955.921270783651	0
1	7674	11961.89816612455	0
1	7676	11965.582086801825	0
1	7679	11974.374952396396	0
1	7682	11976.950400688509	0
1	7684	11982.518028357916	0
1	7686	11983.429797031761	0
1	7689	11986.924333474316	0
1	7692	12001.188455154518	0
1	7695	12012.176585032618	0
1	7697	12013.185475500993	0
1	7700	12019.399402811625	0
1	7702	12019.959004471728	0
1	7704	12025.962169793307	0
1	7707	12033.738682807363	0
1	7709	12040.252262544044	0
1	7711	12041.790119314128	0
1	7714	12042.726035633678	0
1	7717	12044.473170731586	0
1	7720	12045.332746636269	0
1	7722	12053.725169382666	0
1	7725	12054.067896937496	0
1	7727	12056.956917185079	0
1	7729	12060.061471544144	0
1	7732	12065.059905878007	0
1	7735	12069.580715363743	0
1	7737	12071.873358179224	0
1	7740	12072.410738238362	0
1	7742	12072.850139369917	0
1	7745	12073.071255515512	0
1	7747	12075.295690542668	0
1	7749	12079.12825965914	0
1	7752	12080.906013182553	0
1	7755	12081.813364626743	0
1	7757	12089.953419746126	0
1	7760	12090.517414418587	0
1	7763	12093.14559459136	1
1	7765	12093.431006768067	0
1	7768	12098.564411931245	1
1	7770	12108.768215329051	0
1	7773	12110.451940923009	1
1	7775	12116.028375498256	2
1	7777	12116.944618189634	1
1	7780	12119.235826767498	0
1	7783	12121.056434129373	1
1	7785	12121.124612337156	0
1	7788	12122.767068533715	1
1	7790	12134.949750231886	0
1	7793	12136.37953904403	1
1	7795	12138.042281997232	2
1	7797	12138.857356783138	3
1	7799	12139.834320361538	2
1	7802	12141.714799230021	3
1	7804	12144.652366720846	2
1	7807	12147.139754176416	3
1	7809	12148.211030043332	2
1	7812	12148.521887043069	3
1	7814	12150.325795845812	2
1	7817	12157.509519520133	1
1	7820	12161.954329426633	2
1	7822	12165.039508237898	1
1	7825	12165.957511221106	2
1	7827	12166.53142513244	3
1	7829	12166.56809109942	2
1	7832	12173.277913626719	3
1	7834	12174.924890103032	4
1	7836	12178.425956763329	5
1	7838	12180.859765779738	4
1	7841	12185.263744717534	3
1	7844	12187.42947468701	4
1	7846	12189.237487776448	3
1	7849	12193.203795732184	4
1	7851	12200.755635793043	5
1	7853	12202.143917416506	4
1	7856	12205.469873684206	3
1	7859	12207.24204632355	2
1	7862	12210.997861025151	3
1	7864	12215.567034409943	4
1	7866	12221.276790217756	3
1	7869	12221.372597910734	4
1	7871	12221.675472058765	5
1	7873	12222.589655141775	4
1	7876	12229.191504706769	3
1	7879	12230.821962338711	4
1	7881	12232.694746533337	3
1	7884	12240.619411386791	2
1	7887	12245.148677705239	1
1	7890	12246.639180196299	0
1	7893	12251.899042455536	0
1	7895	12252.414354660776	0
1	7897	12261.05630999567	0
1	7900	12262.288707258571	0
1	7902	12282.995352500095	0
1	7904	12295.908544623762	0
1	7907	12299.574205518213	0
1	7909	12301.360419889432	0
1	7912	12310.541121891176	0
1	7914	12312.213645535882	0
1	7916	12312.402315974428	0
1	7919	12312.673794527256	0
1	7922	12318.68262566262	0
1	7924	12327.761862574878	0
1	7926	12329.774389757518	0
1	7929	12329.842981078653	0
1	7931	12335.208270073075	0
1	7933	12354.938903578207	0
1	7936	12358.410325948463	0
1	7939	12358.951836629607	0
1	7942	12359.141431014906	0
1	7945	12372.934412860763	0
1	7948	12373.322867185501	1
1	7950	12379.725840602584	2
1	7952	12380.353527797678	1
1	7955	12381.532999406625	0
1	7958	12384.532397746183	0
1	7960	12388.055267866562	0
1	7963	12390.620551833219	1
1	7965	12393.22451273534	0
1	7968	12393.743538266682	1
1	7970	12395.122617572969	2
1	7972	12400.151226624289	3
1	7974	12404.603317311199	2
1	7977	12416.154308348549	3
1	7979	12417.923859101407	2
1	7982	12418.930224777001	3
1	7984	12420.017602085855	2
1	7987	12420.137119949386	3
1	7989	12424.59154536621	4
1	7991	12425.668481337625	5
1	7993	12432.52317318201	4
1	7996	12432.599273811691	5
1	7998	12434.451905497631	6
1	8000	12436.814236610246	5
1	8003	12439.748679141484	4
1	8006	12439.760068528911	5
1	8008	12443.314758210564	6
1	8010	12445.566556783375	7
1	8012	12450.156892157434	6
1	8015	12453.897598046124	5
1	8018	12462.340873643844	6
1	8020	12471.698074757168	5
1	8023	12474.340532980711	4
1	8026	12476.873203145822	5
1	8028	12477.174640072496	4
1	8031	12479.946752113192	5
1	8033	12480.233394053049	4
1	8036	12481.163937478415	5
1	8038	12484.335836434743	4
1	8041	12489.04742622733	3
1	8044	12489.323891578868	4
1	8046	12490.418441248232	3
1	8049	12492.495868181801	2
1	8052	12493.870308519108	1
1	8055	12496.78878486118	0
1	8058	12500.164621686219	0
1	8060	12502.566977273385	0
1	8062	12503.391630032175	0
1	8064	12511.005943476437	0
1	8067	12513.385360136478	0
1	8069	12528.240072065639	0
1	8071	12528.705474114136	0
1	8073	12531.019664826437	0
1	8075	12539.973790566287	0
1	8077	12546.409717802645	0
1	8080	12548.463158770911	0
1	8083	12556.729854901331	0
1	8086	12562.743198419087	0
1	8089	12563.837363618486	0
1	8091	12566.411723746903	0
1	8093	12566.76730472818	0
1	8096	12572.147148779978	0
1	8098	12585.129866513318	0
1	8101	12590.128215565526	0
1	8104	12602.265614577984	0
1	8107	12604.470198095393	0
1	8110	12604.825039741251	0
1	8112	12610.408948402846	0
1	8115	12620.860303461836	0
1	8118	12621.700658384871	0
1	8120	12632.751763142949	0
1	8122	12635.793964651905	0
1	8124	12639.555477612603	0
1	8126	12641.130203754133	0
1	8128	12642.254640786558	0
1	8131	12645.274605893978	0
1	8133	12647.067541519293	0
1	8136	12660.85696949517	0
1	8138	12662.764859774507	0
1	8141	12665.194509682878	0
1	8143	12675.649701656997	0
1	8145	12709.66833915741	0
1	8148	12721.191225396227	0
1	8150	12743.247653290963	0
1	8153	12748.878766648358	0
1	8156	12751.254615140132	0
1	8158	12756.453444669368	0
1	8161	12764.528491711695	0
1	8164	12773.765117328202	0
1	8166	12779.688699093161	0
1	8168	12799.899983998516	0
1	8170	12800.979767577835	0
1	8173	12804.311568074796	0
1	8175	12804.976118048417	0
1	8178	12812.042153242972	0
1	8180	12816.182859406429	0
1	8183	12830.251973395515	0
1	8186	12832.972331383701	0
1	8189	12835.982929068252	0
1	8192	12836.770392689474	0
1	8195	12842.809399682636	0
1	8198	12843.757766064365	1
1	8200	12853.144747862192	0
1	8203	12853.563209191182	0
1	8205	12855.414960581548	0
1	8207	12861.352508011917	0
1	8210	12862.874239331887	0
1	8212	12863.309064495871	0
1	8215	12863.579800483498	0
1	8218	12864.790767549113	1
1	8220	12866.788099693813	0
1	8223	12868.370896065061	0
1	8225	12877.038677773302	0
1	8228	12878.304782496667	1
1	8230	12882.710571202504	2
1	8232	12884.029075537628	3
1	8234	12891.457943859415	4
1	8236	12896.712002664765	5
1	8238	12897.779555900485	4
1	8241	12898.866876069477	3
1	8244	12906.861091980142	4
1	8246	12907.916708842672	3
1	8249	12908.074183996202	4
1	8251	12914.289812422254	5
1	8253	12917.638574297855	4
1	8256	12918.703575742824	5
1	8258	12920.169373630722	4
1	8261	12920.99123216445	5
1	8263	12922.433567342108	4
1	8266	12924.234486629273	3
1	8269	12927.318581242302	4
1	8271	12928.675136201972	3
1	8274	12928.688608907031	4
1	8276	12931.421328036739	3
1	8279	12936.583730930741	2
1	8282	12940.045327327053	3
1	8284	12946.320193744521	4
1	8286	12946.425674460686	5
1	8288	12949.019920571182	4
1	8291	12952.318723421343	3
1	8294	12955.808064997756	4
1	8296	12956.318155578974	3
1	8299	12966.944071485477	2
1	8302	12969.511856243728	1
1	8305	12970.342007036544	0
1	8308	12981.905268263987	0
1	8310	12990.471555622909	0
1	8312	12997.335113198384	0
1	8315	13003.392109280426	0
1	8317	13004.693776477229	0
1	8319	13015.335083586017	0
1	8321	13017.573392320274	0
1	8324	13021.298634305169	0
1	8327	13033.567766956249	0
1	8329	13037.803378917763	0
1	8331	13038.854385046238	0
1	8333	13042.72645899122	0
1	8336	13046.979453522289	0
1	8338	13054.508007167475	0
1	8341	13055.664565159323	0
1	8344	13060.029810044723	0
1	8346	13060.543069086701	0
1	8349	13067.963292430296	0
1	8351	13076.138884390553	0
1	8354	13078.903069705728	0
1	8357	13083.729582617671	0
1	8360	13084.537844505159	0
1	8362	13089.838159901654	0
1	8365	13092.265041117824	0
1	8368	13093.261589670096	1
1	8370	13098.7900579475	0
1	8373	13099.040961865067	0
1	8375	13099.15907032265	0
1	8377	13123.649151235356	0
1	8380	13125.976893328585	0
1	8383	13127.142394997714	0
1	8385	13128.048431324799	0
1	8388	13130.200069892685	1
1	8390	13131.868832260895	2
1	8392	13134.602529086187	1
1	8395	13143.931462311476	0
1	8398	13145.467336606407	0
1	8400	13146.49240896502	0
1	8402	13147.881809649772	0
1	8404	13149.651893167466	0
1	8406	13156.396917439947	0
1	8408	13157.345074344888	0
1	8410	13162.532564802081	0
1	8412	13165.744722869385	0
1	8415	13176.039346984262	0
1	8418	13181.493037831416	0
1	8420	13182.072273643349	0
1	8423	13185.195251030605	0
1	8426	13190.773930453386	0
1	8428	13198.20352788026	0
1	8431	13215.167369432816	0
1	8434	13221.825406100509	0
1	8436	13223.526654618545	0
1	8438	13225.890497092948	0
1	8441	13226.16683026887	0
1	8444	13232.024121363109	0
1	8446	13236.483242781084	0
1	8448	13242.758147621152	0
1	8451	13244.073376201022	0
1	8454	13262.706314233482	0
1	8456	13267.270204582849	0
1	8459	13278.480665046002	0
1	8462	13282.599512840869	0
1	8465	13296.613210452784	0
1	8468	13298.77385468598	0
1	8470	13306.304173587218	0
1	8473	13314.008472525658	1
1	8475	13314.60330057962	0
1	8478	13315.027288378313	1
1	8480	13320.327782587975	2
1	8482	13325.587177393367	1
1	8485	13327.979472511858	0
1	8488	13332.050862057455	0
1	8490	13334.310619532094	0
1	8493	13334.430246769295	0
1	8495	13337.39095731437	0
1	8498	13337.874715587632	0
1	8500	13342.236055305959	0
1	8502	13348.499023406202	0
1	8504	13349.446278075822	0
1	8506	13351.673451675109	0
1	8509	13352.891381548764	0
1	8512	13360.693704935425	0
1	8515	13361.781224692784	0
1	8517	13372.121424364033	0
1	8519	13373.960841611355	0
1	8521	13376.502481456034	0
1	8523	13380.190936851078	0
1	8525	13380.721782565226	0
1	8528	13389.58826548511	0
1	8530	13398.389941968888	0
1	8533	13399.838502919713	0
1	8536	13414.051236866052	0
1	8538	13414.554315390841	0
1	8541	13421.610335476175	0
1	8543	13427.388640838529	0
1	8546	13427.798968502889	0
1	8549	13436.158043824449	0
1	8552	13442.890407774172	0
1	8554	13444.240978212506	0
1	8557	13445.255859116465	0
1	8560	13454.264938599135	0
1	8562	13455.465149421895	0
1	8564	13457.073613058076	0
1	8567	13465.524629947004	0
1	8569	13468.744194962683	0
1	8572	13471.41071768698	0
1	8574	13473.286465034412	0
1	8577	13473.811968359854	0
1	8580	13474.272970744553	0
1	8582	13475.975113026252	0
1	8584	13477.062669255189	0
1	8587	13483.270684164024	0
1	8589	13484.12547488682	0
1	8592	13484.134895307854	0
1	8594	13488.772643640983	0
1	8596	13495.704958965431	0
1	8599	13500.280324750015	0
1	8602	13506.877620803076	0
1	8604	13507.129070581903	0
1	8607	13515.302303232445	0
1	8610	13515.935628314426	0
1	8613	13516.015126303649	1
1	8615	13517.468875652054	2
1	8617	13517.819823994327	1
1	8620	13519.65797555762	2
1	8622	13520.111270751208	3
1	8624	13528.699084165436	2
1	8627	13534.731969356614	3
1	8629	13537.436042456027	4
1	8631	13540.370202905786	5
1	8633	13540.672232488478	4
1	8636	13541.270064565282	3
1	8639	13543.063284834495	4
1	8641	13544.281253859792	5
1	8643	13548.52560511815	6
1	8645	13556.429706252093	5
1	8648	13558.094032025835	6
1	8650	13563.573800899205	5
1	8653	13566.536408774151	6
1	8655	13572.733422973428	5
1	8658	13572.800689923234	4
1	8661	13576.836445932412	3
1	8664	13577.86865600516	4
1	8666	13582.140549417534	5
1	8668	13584.173611417244	6
1	8670	13584.287867376188	7
1	8672	13599.240136569886	8
1	8674	13607.654557794515	7
1	8677	13612.106763362247	6
1	8680	13621.108403609424	7
1	8682	13624.072353655804	6
1	8685	13624.888634942605	5
1	8688	13626.644983399094	6
1	8690	13627.118536135941	7
1	8692	13628.127549813832	6
1	8695	13629.197311289225	7
1	8697	13632.601749456397	6
1	8700	13633.220549757199	5
1	8703	13637.872251130626	4
1	8706	13638.313246873722	3
1	8709	13638.625788642511	2
1	8712	13639.080640151943	3
1	8714	13642.691457487567	2
1	8717	13644.423701325514	1
1	8720	13651.602096197694	0
1	8723	13654.867629486877	1
1	8725	13657.263926781106	2
1	8727	13658.995354691922	3
1	8729	13664.939049966842	2
1	8732	13665.788565747621	3
1	8734	13666.653542577819	2
1	8737	13670.410234559143	3
1	8739	13677.816862481485	4
1	8741	13680.809566880992	3
1	8744	13683.78619546378	2
1	8747	13686.306581329429	1
1	8750	13688.31023639046	0
1	8753	13693.911581084202	1
1	8755	13699.208289915777	0
1	8758	13700.485405976639	1
1	8760	13705.101003778806	0
1	8763	13706.770812941795	1
1	8765	13707.692973840953	0
1	8768	13709.54378884168	0
1	8770	13717.9466512771	0
1	8772	13722.232643356222	0
1	8775	13725.313980391603	0
1	8777	13739.677044069362	0
1	8779	13740.654665346912	0
1	8782	13741.857346796713	0
1	8784	13742.655426135858	0
1	8786	13745.414161313893	0
1	8789	13754.125420740402	0
1	8792	13760.667928338182	0
1	8794	13768.641020517345	0
1	8796	13769.128836531588	0
1	8799	13770.89773362424	0
1	8802	13773.189625829016	0
1	8805	13773.276781625285	0
1	8808	13774.28683517149	0
1	8810	13778.085766697884	0
1	8813	13785.321369532664	1
1	8815	13793.490222345771	2
1	8817	13800.811520870503	3
1	8819	13802.566486740762	4
1	8821	13802.905131209769	3
1	8824	13805.312820529204	4
1	8826	13809.950686034614	3
1	8829	13812.140968285025	4
1	8831	13816.794379751059	5
1	8833	13818.651364256628	4
1	8836	13819.494692735416	5
1	8838	13820.569193971815	6
1	8840	13820.621679541676	7
1	8842	13828.597165920607	6
1	8845	13829.076467603691	5
1	8848	13831.231301368622	4
1	8851	13831.607961934325	5
1	8853	13833.412320164658	4
1	8856	13837.703532695601	3
1	8859	13844.685227151031	4
1	8861	13847.106058902219	3
1	8864	13849.383664836321	4
1	8866	13850.363727655075	3
1	8869	13852.507628017663	4
1	8871	13852.863011849163	3
1	8874	13859.656295539491	2
1	8877	13867.172130757936	1
1	8880	13871.383157368309	0
1	8883	13879.223803951943	1
1	8885	13881.101051549748	0
1	8888	13884.238381537416	1
1	8890	13884.687372890941	0
1	8893	13887.883736253424	0
1	8895	13889.108957739609	0
1	8897	13897.755369037454	0
1	8900	13898.852937703775	0
1	8903	13901.363030295247	0
1	8905	13904.568957002277	0
1	8907	13905.419355255496	0
1	8909	13909.847137675272	0
1	8911	13918.164162584959	0
1	8914	13918.737645840012	0
1	8917	13919.872070143269	0
1	8919	13924.172048152352	0
1	8921	13926.646488265534	0
1	8924	13928.182795993163	0
1	8927	13933.990485473414	0
1	8930	13940.49953968706	0
1	8932	13942.933113065398	0
1	8934	13951.485535394336	0
1	8937	13956.110632793115	0
1	8939	13962.032737237347	0
1	8942	13963.911120755934	0
1	8944	13966.351953430596	0
1	8947	13967.194473086725	0
1	8950	13967.505213720437	0
1	8953	13969.311884343439	0
1	8955	13971.85974732415	0
1	8958	13972.802188290462	1
1	8960	13978.405458244967	0
1	8963	13985.60895092427	0
1	8965	13987.989440533027	0
1	8967	13995.434756974725	0
1	8970	13997.357177868477	0
1	8973	13997.486413825748	0
1	8975	14004.129811284039	0
1	8978	14004.708784290007	1
1	8980	14006.061990187954	0
1	8983	14006.728082817163	1
1	8985	14014.12087015339	0
1	8988	14019.236699492974	0
1	8990	14027.956584751977	0
1	8992	14029.526063232481	0
1	8994	14032.271493560884	0
1	8997	14036.322730076199	0
1	8999	14041.301252242245	0
1	9002	14043.109826627473	0
1	9004	14044.625025159689	0
1	9007	14057.799754695573	0
1	9009	14062.731272643214	0
1	9012	14063.775758559449	0
1	9014	14068.351371621819	0
1	9017	14068.956962531174	0
1	9020	14080.683925360601	0
1	9023	14080.699106259534	1
1	9025	14087.958861701821	2
1	9027	14090.950216126045	1
1	9030	14091.292476222012	2
1	9032	14091.375606355571	1
1	9035	14094.716686572871	0
1	9038	14095.666989971321	0
1	9040	14098.516688103626	0
1	9042	14108.939851784059	0
1	9045	14109.831075239365	0
1	9048	14112.487631683484	0
1	9050	14114.436127362086	0
1	9053	14118.172661188407	0
1	9055	14119.266894521849	0
1	9057	14132.703735089934	0
1	9060	14134.752795019815	0
1	9062	14135.213232541764	0
1	9065	14136.208266414714	0
1	9067	14144.138255810631	0
1	9070	14144.919479943192	0
1	9073	14153.06496034564	1
1	9075	14153.61013719995	2
1	9077	14154.164430531615	1
1	9080	14155.178607576751	0
1	9083	14163.709763694828	1
1	9085	14166.206293080844	2
1	9087	14179.081526971658	1
1	9090	14180.008443935682	0
1	9093	14186.93122561941	0
1	9095	14189.896928214212	0
1	9098	14191.139779313259	0
1	9100	14194.967392520168	0
1	9102	14198.003634066472	0
1	9105	14199.037453197568	0
1	9107	14199.918758348418	0
1	9109	14203.896220039449	0
1	9112	14205.89949021445	0
1	9115	14206.899978071884	0
1	9118	14218.524224567093	0
1	9120	14222.740017057746	0
1	9123	14228.311539875377	0
1	9125	14228.345619871813	0
1	9127	14230.767697551414	0
1	9130	14234.566125412011	0
1	9132	14244.816840647494	0
1	9134	14251.542300080893	0
1	9137	14253.006355179824	0
1	9140	14255.375525777808	0
1	9142	14259.227034026977	0
1	9145	14269.330323083945	0
1	9147	14272.249804065945	0
1	9149	14276.8868330569	0
1	9152	14279.657555064861	0
1	9154	14284.097292108062	0
1	9157	14292.824700882114	0
1	9159	14310.753276178898	0
1	9162	14311.41218856366	0
1	9165	14320.180927583541	0
1	9168	14320.465069563742	0
1	9170	14326.599041461281	0
1	9172	14330.627001226526	0
1	9175	14340.193654943316	0
1	9178	14345.274624889828	0
1	9180	14346.085931554758	0
1	9182	14359.361182377681	0
1	9185	14364.305486286847	0
1	9188	14365.220831327502	0
1	9190	14366.322789251641	0
1	9193	14370.227496219301	0
1	9195	14371.497323592408	0
1	9197	14381.609005367685	0
1	9200	14387.138218864686	0
1	9203	14397.512326147034	0

