version 2
run POLICY_1-22-20191213-12:40:10-1218
attr configname POLICY_1
attr datetime 20191213-12:40:10
attr experiment POLICY_1
attr inifile omnetpp.ini
attr iterationvars ""
attr iterationvarsf ""
attr measurement ""
attr network Carrefour
attr processid 1218
attr repetition 22
attr replication #22
attr resultdir results
attr runnumber 22
attr seedset 22
param **.policy 1
param **.delta 0s
param **.tillsNumber 7
param **.capacity 0.3
param **.meanInterArrivalTime 8s
param **.meanItemsInACart 12
param **.interArrivalDistribution 0
param **.itemsInCartDistribution 0

vector 0 Carrefour.decider stats_numCustomers:vector ETV
attr "" ""
attr source numCustomers
vector 1 Carrefour.decider stats_numCustomersQueue:vector ETV
attr "" ""
attr source numCustomersQueue
0	730	1202.230810745499	9
0	732	1207.673848970819	8
0	735	1207.809852961653	7
0	738	1217.044308695298	8
0	740	1222.222596414453	7
0	743	1224.257055373145	8
0	745	1224.58364604674	7
0	748	1233.392045567073	8
0	750	1242.527880798712	9
0	752	1247.322691890012	8
0	755	1254.8630261121	9
0	757	1259.356644342427	8
0	760	1262.869797874433	9
0	762	1270.06777630018	8
0	765	1271.659144317087	9
0	767	1273.307373875017	8
0	770	1286.891159634363	7
0	773	1288.499871903622	6
0	775	1289.297212552005	5
0	777	1293.995273220229	6
0	780	1298.274581444705	7
0	783	1305.246928184101	6
0	785	1308.96303018976	7
0	788	1308.978883926375	8
0	790	1311.011725167031	7
0	793	1313.220226248174	6
0	795	1313.667240457018	5
0	797	1319.906286194769	6
0	800	1322.19893231926	7
0	803	1322.905947384169	6
0	805	1323.12119203051	7
0	808	1324.222416337048	6
0	810	1324.80083633166	5
0	812	1325.025325608648	6
0	815	1330.469310111419	7
0	818	1341.527569462822	8
0	820	1345.718033180878	7
0	823	1357.651857132302	8
0	825	1358.540062426084	7
0	828	1360.062726227475	6
0	830	1361.995064558845	5
0	832	1364.114833180045	4
0	834	1365.233902446152	3
0	836	1365.723530625032	2
0	838	1370.658564729846	3
0	841	1370.805955083607	4
0	844	1371.452175524925	5
0	847	1372.2375343109	4
0	849	1373.068162253682	5
0	852	1378.333823440997	4
0	854	1387.756124183832	5
0	857	1388.712519865868	6
0	860	1390.781832095479	7
0	863	1394.954806944887	6
0	865	1398.271746498641	5
0	867	1406.136629437193	6
0	870	1407.22436551304	7
0	873	1407.621704713588	8
0	875	1418.872282077401	7
0	878	1419.186954670815	8
0	880	1420.289853591417	7
0	883	1424.722999639843	8
0	885	1429.07300723108	7
0	888	1429.983801655792	6
0	890	1432.173458926535	7
0	893	1437.768227700269	8
0	895	1439.137506452248	7
0	898	1439.512537838906	8
0	900	1442.676323225367	7
0	903	1444.208052276422	6
0	905	1447.124086137313	5
0	907	1451.088612371039	6
0	910	1458.56318441309	7
0	913	1461.978479039339	8
0	915	1467.842426183415	7
0	918	1473.157434200342	8
0	920	1478.345565749147	7
0	923	1480.503054830327	6
0	925	1494.595343788606	7
0	928	1495.640895085375	6
0	930	1500.882030041144	5
0	932	1506.950539288529	4
0	934	1510.135912826216	5
0	937	1512.980242296918	6
0	940	1515.027553215146	7
0	943	1515.491791605691	6
0	945	1520.234684378326	5
0	947	1520.96742059948	4
0	949	1521.435719735565	5
0	952	1522.701169118478	6
0	955	1523.175393053162	7
0	958	1524.73990701531	8
0	960	1529.918600652667	7
0	963	1531.80932123736	6
0	965	1531.97691533625	7
0	968	1537.225938818642	8
0	970	1538.110259344582	7
0	973	1545.467084128996	8
0	975	1547.292310657245	7
0	978	1552.621511848761	6
0	980	1566.069606039906	5
0	982	1569.586494525881	6
0	985	1580.399907802316	7
0	988	1580.898254410281	8
0	990	1581.731479075638	9
0	992	1583.603144436605	10
0	994	1586.985364397128	11
0	996	1587.758022155857	10
0	999	1589.424435921789	9
0	1002	1596.20302026474	8
0	1005	1599.481538128201	9
0	1007	1608.831774095849	10
0	1009	1610.349313062632	9
0	1012	1613.768004930177	8
0	1015	1614.989218925412	7
0	1018	1616.023155415553	6
0	1020	1617.430473719211	5
0	1022	1620.935057468063	6
0	1025	1622.54378566737	7
0	1028	1626.438538246711	8
0	1030	1626.458894072615	9
0	1032	1629.100150060143	8
0	1035	1630.917687973581	7
0	1038	1640.367236481115	8
0	1040	1642.858163638033	9
0	1042	1643.165639657902	10
0	1044	1647.618606868213	9
0	1047	1651.586740224636	8
0	1050	1652.774193179431	9
0	1052	1653.174579930689	10
0	1054	1655.066557138415	9
0	1057	1657.517712775759	10
0	1059	1659.18302870124	9
0	1062	1661.006491143362	8
0	1065	1662.391672164399	7
0	1068	1669.610755692155	6
0	1070	1671.29084473827	5
0	1072	1671.770267137176	4
0	1074	1676.247369592959	5
0	1077	1679.261096736743	4
0	1079	1679.321793964485	5
0	1082	1689.195819138674	6
0	1085	1691.103853004489	7
0	1088	1692.481286160278	6
0	1090	1693.015501822874	7
0	1093	1695.37074087601	6
0	1095	1696.019163503381	7
0	1098	1698.498321889452	8
0	1100	1701.888337037125	7
0	1103	1702.200193464397	8
0	1105	1704.062853747149	9
0	1107	1705.196124323591	10
0	1109	1706.099819990716	11
0	1111	1709.494329277191	10
0	1114	1715.14806451466	11
0	1116	1720.492959148446	12
0	1118	1722.829735513203	11
0	1121	1724.067627773971	10
0	1124	1726.19660323744	11
0	1126	1728.009276759149	10
0	1129	1731.117218059395	9
0	1132	1741.28094554588	10
0	1134	1756.864102734806	11
0	1136	1757.318937341789	12
0	1138	1757.321848101566	13
0	1140	1757.96184491778	14
0	1142	1758.62299908931	13
0	1145	1761.71781393588	12
0	1148	1767.609602491431	11
0	1151	1768.072016186799	10
0	1154	1770.043836197744	11
0	1156	1776.05237750229	12
0	1158	1782.749778039822	11
0	1161	1786.301147201778	10
0	1164	1788.625475995822	11
0	1166	1790.908982091299	10
0	1169	1796.428246849657	9
0	1172	1797.806610136718	10
0	1174	1798.33692220146	11
0	1176	1805.10404902888	10
0	1179	1810.087805720695	11
0	1181	1814.58502401919	12
0	1183	1815.587114340132	11
0	1186	1815.887787675345	10
0	1189	1827.489971156384	11
0	1191	1829.93957357214	10
0	1194	1830.89357131479	11
0	1196	1831.014406831893	12
0	1198	1834.031624724117	11
0	1201	1836.238974227806	10
0	1204	1836.804715835278	9
0	1207	1836.950363044452	8
0	1210	1839.301760398085	7
0	1213	1839.518658698029	6
0	1215	1845.692216185183	5
0	1217	1845.759262182635	6
0	1220	1852.015137636644	5
0	1222	1853.762146414033	4
0	1224	1856.668275546289	5
0	1227	1861.963394821328	6
0	1230	1867.721567708382	7
0	1233	1870.117232572175	8
0	1235	1870.882239587838	7
0	1238	1874.339823210846	6
0	1240	1875.835533602521	5
0	1242	1891.80390615054	4
0	1244	1898.992424455554	3
0	1246	1905.624015136927	4
0	1249	1906.618781819334	5
0	1252	1907.560076749182	6
0	1255	1915.219974102497	7
0	1258	1917.640252519748	6
0	1260	1918.331093228119	7
0	1263	1920.860928264742	6
0	1265	1921.229168663979	5
0	1267	1921.798676796038	6
0	1270	1923.15061700764	5
0	1272	1932.747028632288	4
0	1274	1938.934721729474	5
0	1277	1944.698174233908	6
0	1280	1944.852050199634	7
0	1283	1948.45406348215	8
0	1285	1956.737532567895	7
0	1288	1958.126910172781	8
0	1290	1961.703351881523	7
0	1293	1966.200136172324	6
0	1295	1969.530104815166	5
0	1297	1970.350704673336	4
0	1299	1972.067015606033	3
0	1301	1988.570758382399	2
0	1303	1989.698030447483	3
0	1306	1992.469998461903	2
0	1308	2000.62505404816	3
0	1311	2004.787832230043	4
0	1314	2013.602620269155	3
0	1316	2014.905313302361	2
0	1318	2015.820269022417	3
0	1321	2028.832696386518	4
0	1324	2029.20583928025	3
0	1326	2029.783797697433	4
0	1329	2037.740849588385	3
0	1331	2038.820176961042	4
0	1334	2042.426955942672	5
0	1337	2044.924459877177	6
0	1340	2050.628717618478	7
0	1343	2056.18859574208	8
0	1345	2057.447198717688	7
0	1348	2060.496656824609	8
0	1350	2064.649078384187	9
0	1352	2065.554344395163	10
0	1354	2069.610369814681	9
0	1357	2074.605816779454	8
0	1360	2075.977316279427	9
0	1362	2080.43726571595	10
0	1364	2082.206831157735	9
0	1367	2084.047789160058	10
0	1369	2084.883535453833	9
0	1372	2085.030444915404	8
0	1375	2085.794051708623	7
0	1378	2086.845508392419	6
0	1380	2088.10583957216	7
0	1383	2092.910004285296	6
0	1385	2095.573886659971	5
0	1387	2096.083777746845	4
0	1389	2096.463501754864	3
0	1391	2099.816944339221	2
0	1393	2104.922598769014	3
0	1396	2117.381206757821	4
0	1399	2122.321145749237	5
0	1402	2123.59402619362	6
0	1405	2123.638009334724	5
0	1407	2137.065540503945	4
0	1409	2137.470759536621	3
0	1411	2145.562144306046	4
0	1414	2145.64639974996	3
0	1416	2147.164428132119	4
0	1419	2148.965894584951	3
0	1421	2162.351509025853	4
0	1424	2164.138860852713	5
0	1427	2167.164858152509	6
0	1430	2178.192561941855	7
0	1433	2178.696058536584	6
0	1435	2179.149954683152	5
0	1437	2183.507815376931	6
0	1440	2190.527414317478	5
0	1442	2192.176638207935	6
0	1445	2196.324773167693	7
0	1448	2199.724110122812	8
0	1450	2201.212813202159	7
0	1453	2214.579172783702	6
0	1455	2215.093940943828	5
0	1457	2218.208978453546	4
0	1459	2222.384910141001	3
0	1461	2228.852476752679	2
0	1463	2234.177653550535	3
0	1466	2240.108827211684	4
0	1469	2245.151335910528	5
0	1472	2249.218129128002	4
0	1474	2252.754746648984	3
0	1476	2254.946750411656	4
0	1479	2258.246954032609	5
0	1482	2258.998230588902	6
0	1485	2261.528089891108	5
0	1487	2262.036040717003	4
0	1489	2263.758686478085	5
0	1492	2271.738971109542	4
0	1494	2275.074418944728	5
0	1497	2276.59756451758	6
0	1500	2280.477452105956	5
0	1502	2281.029887942637	6
0	1505	2285.911860652463	5
0	1507	2287.839389444611	6
0	1510	2287.970185712553	5
0	1512	2296.806304259157	4
0	1514	2298.619354650748	3
0	1516	2304.907434448073	4
0	1519	2312.204207722247	3
0	1521	2313.96250965082	2
0	1523	2315.035547162118	3
0	1526	2318.102364967601	4
0	1529	2323.143458849528	3
0	1531	2326.104661630505	2
0	1533	2335.94637871106	3
0	1536	2337.943323651593	4
0	1539	2348.589239204242	3
0	1541	2350.387098808233	4
0	1544	2353.187159243615	5
0	1547	2358.489716532526	6
0	1550	2362.106152786934	5
0	1552	2364.502029925208	6
0	1555	2366.48009104771	5
0	1557	2367.495365729991	6
0	1560	2368.899639338122	7
0	1563	2378.409212200962	8
0	1565	2379.394298009346	9
0	1567	2384.289207020652	8
0	1570	2386.325840393702	9
0	1572	2387.448002299014	10
0	1574	2390.657135970936	9
0	1577	2391.396255274411	10
0	1579	2397.482277117705	11
0	1581	2400.847869781339	10
0	1584	2402.407018600109	11
0	1586	2402.546422288287	10
0	1589	2403.882510794359	9
0	1592	2407.581746554528	10
0	1594	2411.953982739994	9
0	1597	2413.052418740408	8
0	1600	2415.225860326449	9
0	1602	2416.821327629741	8
0	1605	2420.459921765862	9
0	1607	2421.563907351012	10
0	1609	2423.766911803536	11
0	1611	2430.88954975501	12
0	1613	2431.665656215022	11
0	1616	2432.565410262274	10
0	1619	2437.446175521452	9
0	1622	2438.35991813125	8
0	1625	2442.854928230168	7
0	1628	2446.081650351334	6
0	1630	2446.210611854921	7
0	1633	2446.578599213848	6
0	1635	2447.594894270277	5
0	1637	2450.208722093454	4
0	1639	2452.635398766632	5
0	1642	2453.784460264833	6
0	1645	2455.260746525241	5
0	1647	2455.90622878422	4
0	1649	2459.126172085062	5
0	1652	2465.050237374634	6
0	1655	2465.558755721983	5
0	1657	2470.067485497435	4
0	1659	2471.428018106903	5
0	1662	2472.20403323614	4
0	1664	2481.179133570902	3
0	1666	2500.325810682656	2
0	1668	2501.605549846222	3
0	1671	2532.507709006447	4
0	1674	2533.442050141717	5
0	1677	2534.943402913645	6
0	1680	2537.29418913467	7
0	1683	2541.051941479106	6
0	1685	2543.292382266563	7
0	1688	2543.810704932882	8
0	1690	2551.985304488201	7
0	1693	2552.972076741376	6
0	1695	2553.61241720094	7
0	1698	2554.367482712785	8
0	1700	2557.05519683225	7
0	1703	2560.553928654406	8
0	1705	2560.570521774993	7
0	1708	2563.673680420263	6
0	1710	2564.477804608961	7
0	1713	2568.63902691039	8
0	1715	2568.895372542423	9
0	1717	2580.28391291639	10
0	1719	2581.130053420527	11
0	1721	2583.822897016616	10
0	1724	2588.897838657053	9
0	1727	2591.105231712198	10
0	1729	2596.05202544601	9
0	1732	2611.945623566807	8
0	1735	2612.103835129858	7
0	1738	2613.124086443123	6
0	1740	2616.640697712489	5
0	1742	2617.489148740668	4
0	1744	2617.563303098352	3
0	1746	2621.270896533689	2
0	1748	2624.487108963786	3
0	1751	2626.299230136964	4
0	1754	2626.483387242226	3
0	1756	2631.248902830548	4
0	1759	2634.104297356973	3
0	1761	2636.610010328123	2
0	1763	2639.681192133265	1
0	1765	2663.706295089257	2
0	1768	2673.398742265506	3
0	1771	2685.761489761103	4
0	1774	2693.955068770348	5
0	1777	2694.00227227984	6
0	1780	2699.179190151275	5
0	1782	2706.872434953338	6
0	1785	2709.445490694406	5
0	1787	2713.423105928289	6
0	1790	2722.757600900633	7
0	1793	2734.257359229686	8
0	1795	2734.890014632749	9
0	1797	2737.126077452917	10
0	1799	2737.459705980994	11
0	1801	2739.102139057642	10
0	1804	2742.455886603438	9
0	1807	2743.14462889748	8
0	1810	2748.643594986811	9
0	1812	2749.11427503027	10
0	1814	2749.345954921163	11
0	1816	2754.549712133728	12
0	1818	2755.20787345968	13
0	1820	2755.304362353911	12
0	1823	2756.378267437812	13
0	1825	2761.702617401269	12
0	1828	2761.917035252892	11
0	1831	2763.225028363041	10
0	1834	2763.262933149716	9
0	1837	2768.084545609495	10
0	1839	2772.729435233802	9
0	1842	2773.049726612097	8
0	1845	2773.23756341607	9
0	1847	2775.641898526122	8
0	1850	2777.843374482439	7
0	1853	2788.952375758213	6
0	1855	2799.352886285239	5
0	1857	2805.258788353706	6
0	1860	2813.81662149147	5
0	1862	2816.741238908498	6
0	1865	2822.437834132195	7
0	1868	2823.892386137149	8
0	1870	2826.654817563459	9
0	1872	2833.922002019566	8
0	1875	2838.206875689642	9
0	1877	2841.085901028653	10
0	1879	2846.906959606681	9
0	1882	2847.97657049649	10
0	1884	2848.161678023428	9
0	1887	2849.848165404422	10
0	1889	2858.225977194756	9
0	1892	2860.010869499586	8
0	1895	2862.275537463431	7
0	1898	2865.951355227556	8
0	1900	2866.386308754765	9
0	1902	2873.390078031584	8
0	1905	2874.18681220492	7
0	1908	2874.936716016661	6
0	1910	2882.488021057689	7
0	1913	2884.25995636909	6
0	1915	2886.894803963725	5
0	1917	2892.333376732742	4
0	1919	2904.43472873746	3
0	1921	2910.485907312052	4
0	1924	2915.562054602275	5
0	1927	2916.172714377176	6
0	1930	2922.305056785808	5
0	1932	2925.570045294562	6
0	1935	2927.456099325284	5
0	1937	2931.292341305023	6
0	1940	2951.131918402985	5
0	1942	2952.669552931644	6
0	1945	2952.680095146379	5
0	1947	2955.002188428559	4
0	1949	2956.856344576864	5
0	1952	2959.421447077702	4
0	1954	2959.653121873598	5
0	1957	2966.491563176588	6
0	1960	2972.829392626332	5
0	1962	2981.21217844095	6
0	1965	2982.526586783424	5
0	1967	2989.362857650004	6
0	1970	2990.255658519914	7
0	1973	2991.487914012202	8
0	1975	2998.286931829418	7
0	1978	3000.409453748793	8
0	1980	3005.741514471912	9
0	1982	3009.445366047149	8
0	1985	3012.874300753317	7
0	1988	3015.187511396519	8
0	1990	3016.301003770552	9
0	1992	3016.93391711337	8
0	1995	3022.930507007965	9
0	1997	3025.575328713776	10
0	1999	3033.765236110238	9
0	2002	3040.966209980027	10
0	2004	3042.002641265744	9
0	2007	3042.518090950347	10
0	2009	3047.316836351292	11
0	2011	3062.503159530141	12
0	2013	3062.783454921501	13
0	2015	3063.287287223036	12
0	2018	3064.210075254464	13
0	2020	3067.444907984125	14
0	2022	3071.897536476882	13
0	2025	3072.519079330913	12
0	2028	3080.661393423222	13
0	2030	3082.416212190583	12
0	2033	3088.417280696142	13
0	2035	3093.094210388173	12
0	2038	3096.106828459183	13
0	2040	3099.242771946969	12
0	2043	3106.249591370914	11
0	2046	3109.997539538713	10
0	2049	3115.027900275662	9
0	2052	3119.734061950883	8
0	2055	3120.706681283114	9
0	2057	3122.87574932534	8
0	2060	3124.825533077024	9
0	2062	3131.970153813388	8
0	2065	3135.117620212385	9
0	2067	3139.528436925172	8
0	2070	3144.131508168922	9
0	2072	3148.880454680331	8
0	2075	3150.901899530055	9
0	2077	3151.082380786216	10
0	2079	3152.20022985375	11
0	2081	3155.767554315683	12
0	2083	3157.461554106909	11
0	2086	3160.245637012748	10
0	2089	3165.833559304957	11
0	2091	3169.259581017137	12
0	2093	3169.311625022744	11
0	2096	3171.478851844292	12
0	2098	3172.137020451033	11
0	2101	3173.896194779655	12
0	2103	3179.331442990497	13
0	2105	3180.293262490349	12
0	2108	3180.988417225657	13
0	2110	3187.893252366537	12
0	2113	3193.15579205387	11
0	2116	3193.87809175289	10
0	2119	3193.957950801447	9
0	2122	3194.927940793856	8
0	2125	3199.786811434773	9
0	2127	3203.097466064037	8
0	2130	3203.17653889075	7
0	2133	3208.37536734174	6
0	2135	3208.874844177503	5
0	2137	3208.923943330825	6
0	2140	3211.302048817647	7
0	2143	3219.89812768427	6
0	2145	3220.959424495723	5
0	2147	3221.021403441831	4
0	2149	3226.423405394715	3
0	2151	3228.175014559681	4
0	2154	3236.370970483255	3
0	2156	3237.390938279518	2
0	2158	3238.763953417045	3
0	2161	3240.715115055024	2
0	2163	3251.997700902753	3
0	2166	3261.771386400276	4
0	2169	3263.32210548726	3
0	2171	3263.360034012218	4
0	2174	3268.052799150274	5
0	2177	3270.563893486158	4
0	2179	3273.983937747727	5
0	2182	3275.887364249131	4
0	2184	3279.535114007022	5
0	2187	3280.285526015153	4
0	2189	3287.743213272435	5
0	2192	3293.195738251821	6
0	2195	3295.485018232535	5
0	2197	3311.438160187407	4
0	2199	3313.150518899859	5
0	2202	3313.866835292203	4
0	2204	3322.482010614344	5
0	2207	3325.10004685733	4
0	2209	3327.487796822395	3
0	2211	3327.981888664292	2
0	2213	3330.369191907127	3
0	2216	3331.582602991583	4
0	2219	3341.030746936719	3
0	2221	3353.178959553751	4
0	2224	3356.958750574438	5
0	2227	3358.407701727795	6
0	2230	3368.454661261414	7
0	2233	3370.868764693329	6
0	2235	3374.931749480273	7
0	2238	3375.159547520925	6
0	2240	3376.220660689309	7
0	2243	3381.486337986342	8
0	2245	3385.532354068998	7
0	2248	3386.391179879137	6
0	2250	3387.010448430142	5
0	2252	3388.606001624259	6
0	2255	3392.275133254584	5
0	2257	3392.808211697543	6
0	2260	3398.622703408163	5
0	2262	3398.669843863484	6
0	2265	3401.089594149571	5
0	2267	3409.527216528782	6
0	2270	3419.465451693218	5
0	2272	3421.53788493891	4
0	2274	3422.966086627678	3
0	2276	3425.912248266929	4
0	2279	3429.376381831168	5
0	2282	3431.443712846489	6
0	2285	3437.6486695413	7
0	2288	3440.94973211461	6
0	2290	3441.70653218401	5
0	2292	3444.426195116048	4
0	2294	3449.60102709629	3
0	2296	3454.777054493112	2
0	2298	3459.823373366451	3
0	2301	3465.418751485961	4
0	2304	3474.143305001916	3
0	2306	3482.79829566769	4
0	2309	3507.972988490361	3
0	2311	3517.452456867466	4
0	2314	3524.153584374112	5
0	2317	3525.233110081471	6
0	2320	3531.798800953079	7
0	2323	3535.770852133001	6
0	2325	3539.303240521301	5
0	2327	3541.966951031003	6
0	2330	3543.6397584039	5
0	2332	3547.942734551608	6
0	2335	3550.84854098465	7
0	2338	3557.597913664336	8
0	2340	3567.922902847268	9
0	2342	3583.774827456207	8
0	2345	3584.697758797038	7
0	2348	3592.669056466277	8
0	2350	3596.624959767646	9
0	2352	3596.740368578133	8
0	2355	3596.944032071915	7
0	2358	3600.509520534249	6
0	2360	3603.177244941013	7
0	2363	3603.202881328748	6
0	2365	3608.58005415275	5
0	2367	3615.830166808683	4
0	2369	3616.73585529783	5
0	2372	3622.788256343253	6
0	2375	3627.547206638023	7
0	2378	3634.622053090753	8
0	2380	3636.05139851287	7
0	2383	3637.572039144318	8
0	2385	3642.931760972444	7
0	2388	3643.094828623007	6
0	2390	3648.711483773121	5
0	2392	3649.392745144275	6
0	2395	3650.576848640682	5
0	2397	3653.779644045974	6
0	2400	3654.096259036885	5
0	2402	3657.13807092839	4
0	2404	3657.442642361962	5
0	2407	3664.477593736446	6
0	2410	3665.296899049338	7
0	2413	3669.642408321784	6
0	2415	3672.696742538898	7
0	2418	3686.411228558792	6
0	2420	3699.246566734622	7
0	2423	3700.552754031483	8
0	2425	3701.286223136683	7
0	2428	3706.856687333743	6
0	2430	3707.107025296443	5
0	2432	3708.417681707219	4
0	2434	3708.759955956299	3
0	2436	3716.053676454369	4
0	2439	3719.4620400897	5
0	2442	3723.269286506932	6
0	2445	3724.701359591018	7
0	2448	3726.834543786755	8
0	2450	3728.35402646713	7
0	2453	3737.501779713867	8
0	2455	3743.7006927584	7
0	2458	3744.779720473799	6
0	2460	3747.829860682226	5
0	2462	3753.127562516546	4
0	2464	3754.479145539442	5
0	2467	3756.241888932881	6
0	2470	3758.67976357551	7
0	2473	3761.917635600038	6
0	2475	3773.131412811325	7
0	2478	3782.425501708775	6
0	2480	3792.003456463331	5
0	2482	3796.798819904158	6
0	2485	3801.254908719101	7
0	2488	3808.25678094549	6
0	2490	3812.014910346771	5
0	2492	3815.211986949834	4
0	2494	3816.711240562969	5
0	2497	3818.803182621852	4
0	2499	3824.058578043877	5
0	2502	3837.245313553924	4
0	2504	3837.343910549191	5
0	2507	3841.224587756491	6
0	2510	3848.864288770299	7
0	2513	3852.305862969647	6
0	2515	3853.48410239096	5
0	2517	3854.192552663002	4
0	2519	3856.071952171067	5
0	2522	3857.480073859394	6
0	2525	3859.673924767416	5
0	2527	3877.464141208175	6
0	2530	3885.44463451722	5
0	2532	3906.652573304658	6
0	2535	3907.848514370876	7
0	2538	3907.85661505631	6
0	2540	3907.930198619604	5
0	2542	3917.491512166909	6
0	2545	3922.157272481194	5
0	2547	3923.411779363361	4
0	2549	3925.717278549192	3
0	2551	3929.30688846622	4
0	2554	3929.4916170402	3
0	2556	3937.272136824435	2
0	2558	3938.674795951789	3
0	2561	3947.428835446722	4
0	2564	3947.897099925541	3
0	2566	3966.711614662677	2
0	2568	3969.019348608035	3
0	2571	3973.18395435335	4
0	2574	3973.907088427019	3
0	2576	3974.787948182611	2
0	2578	3976.094779823609	3
0	2581	3986.854063753677	2
0	2583	3988.633368167173	1
0	2585	4004.445850238504	2
0	2588	4007.05480908967	3
0	2591	4008.310608560563	2
0	2593	4019.627640052762	3
0	2596	4025.294835834643	4
0	2599	4026.630983519448	5
0	2602	4026.865649931893	6
0	2605	4029.149947908481	5
0	2607	4031.038435744726	4
0	2609	4031.773759569258	5
0	2612	4032.280318584315	6
0	2615	4034.816587140987	5
0	2617	4038.724282597838	4
0	2619	4040.247475407384	3
0	2621	4042.235034582039	4
0	2624	4049.171195244425	3
0	2626	4049.959846947883	2
0	2628	4051.487749552489	3
0	2631	4072.001751529248	4
0	2634	4072.537677348288	5
0	2637	4073.887010926904	4
0	2639	4079.939190113078	3
0	2641	4081.222563497682	2
0	2643	4087.351429580595	3
0	2646	4087.378396341642	4
0	2649	4092.648003294318	3
0	2651	4107.694988118885	2
0	2653	4112.461538384399	3
0	2656	4115.784152659591	4
0	2659	4118.205814344651	3
0	2661	4118.496028247992	4
0	2664	4120.156794736515	5
0	2667	4132.711049823168	4
0	2669	4133.030852466015	3
0	2671	4134.869962018657	4
0	2674	4136.46188326385	5
0	2677	4139.007888149052	6
0	2680	4148.784846175695	7
0	2683	4151.790995903789	8
0	2685	4160.469035061329	9
0	2687	4160.872656636767	8
0	2690	4168.127345969903	7
0	2693	4169.354470098531	8
0	2695	4183.081826875742	7
0	2698	4183.878337307762	8
0	2700	4185.818110220639	9
0	2702	4189.835149378662	8
0	2705	4193.03891526246	7
0	2708	4194.032362788997	8
0	2710	4197.913404446371	9
0	2712	4197.939396723994	10
0	2714	4203.276265009164	9
0	2717	4210.242425735015	8
0	2720	4211.343308919056	7
0	2723	4225.631770324762	6
0	2725	4235.44648149795	5
0	2727	4241.528647477006	4
0	2729	4244.35740856221	5
0	2732	4249.333457014333	4
0	2734	4258.584744851488	3
0	2736	4269.135080583013	4
0	2739	4276.690307771044	3
0	2741	4284.408062642924	4
0	2744	4284.834579173698	3
0	2746	4285.436872649366	4
0	2749	4294.771419841605	5
0	2752	4296.413706984402	4
0	2754	4304.593307231904	5
0	2757	4305.936428804652	6
0	2760	4308.880921947966	7
0	2763	4315.98460403097	6
0	2765	4316.393783208631	5
0	2767	4320.8354081626	6
0	2770	4334.977549201629	7
0	2773	4335.838498733289	6
0	2775	4340.353644168214	7
0	2778	4343.198304698482	6
0	2780	4348.152101119085	7
0	2783	4353.165441345303	6
0	2785	4356.049954941935	7
0	2788	4357.722972948527	8
0	2790	4364.685936746766	9
0	2792	4372.732953360263	10
0	2794	4375.676256010348	9
0	2797	4375.867644182842	10
0	2799	4377.523904614886	9
0	2802	4380.71148043175	8
0	2805	4380.913950512243	9
0	2807	4382.878568732209	10
0	2809	4385.527498546503	9
0	2812	4386.217275953195	10
0	2814	4387.273734980768	11
0	2816	4390.354588517224	10
0	2819	4390.909241014929	11
0	2821	4393.90018203689	10
0	2824	4400.401765039521	9
0	2827	4404.487414160606	8
0	2830	4408.260459875609	9
0	2832	4411.879205844592	8
0	2835	4414.624725560354	9
0	2837	4416.494709038241	8
0	2840	4416.565349216738	9
0	2842	4419.972640804301	8
0	2845	4424.721802875222	9
0	2847	4428.592261583542	10
0	2849	4429.684842670201	9
0	2852	4432.060788220842	10
0	2854	4433.714133365012	11
0	2856	4435.031960311901	10
0	2859	4435.135642725449	9
0	2862	4440.913930908371	10
0	2864	4454.628162168124	9
0	2867	4455.024159178662	10
0	2869	4457.525747853031	11
0	2871	4461.08848388713	10
0	2874	4463.059270875383	11
0	2876	4465.630661781267	12
0	2878	4468.296001033555	13
0	2880	4468.509115893601	12
0	2883	4469.053585322466	13
0	2885	4470.73038636938	14
0	2887	4471.805070669464	13
0	2890	4472.119075856677	12
0	2893	4474.72420070823	13
0	2895	4475.126731049987	12
0	2898	4479.519264818041	11
0	2901	4483.053701678841	12
0	2903	4491.481325902833	11
0	2906	4494.121704416312	12
0	2908	4499.448830854631	11
0	2911	4500.706378781829	10
0	2914	4501.986036627165	9
0	2917	4506.615507972538	10
0	2919	4510.141880818261	9
0	2922	4510.322177849304	8
0	2925	4510.835060668851	7
0	2928	4511.197804367112	6
0	2930	4522.240603171212	5
0	2932	4536.406905731102	6
0	2935	4538.022586400543	5
0	2937	4551.173228894468	6
0	2940	4554.891145629226	7
0	2943	4558.517186435021	6
0	2945	4572.486361282145	7
0	2948	4573.455586454618	8
0	2950	4574.101845017296	9
0	2952	4574.391212236373	10
0	2954	4578.968375055731	9
0	2957	4581.538453915006	10
0	2959	4585.137024800876	11
0	2961	4586.275321834156	12
0	2963	4593.601090948684	11
0	2966	4600.819193559896	10
0	2969	4602.480153024078	9
0	2972	4602.611738990719	8
0	2975	4603.254837019317	7
0	2978	4605.429492729753	8
0	2980	4605.733583114961	9
0	2982	4607.78388319901	10
0	2984	4611.057282908176	9
0	2987	4611.443356503371	8
0	2990	4611.671515178051	7
0	2993	4613.079227965862	8
0	2995	4617.187461799967	9
0	2997	4622.056761516774	8
0	3000	4627.677490367999	7
0	3003	4634.216249110537	8
0	3005	4637.015681561385	7
0	3008	4639.914092258495	6
0	3010	4646.20928912172	7
0	3013	4648.128772020958	6
0	3015	4655.09361621768	5
0	3017	4659.65522987623	6
0	3020	4662.559599527619	5
0	3022	4668.38738953767	4
0	3024	4670.282658729472	5
0	3027	4670.388794549247	4
0	3029	4672.549336144136	3
0	3031	4699.052205267976	4
0	3034	4703.360589982941	5
0	3037	4707.080579650622	4
0	3039	4716.581392921917	3
0	3041	4728.178533063916	4
0	3044	4729.936645779956	5
0	3047	4736.616203156777	4
0	3049	4750.048700470851	5
0	3052	4758.904785529852	6
0	3055	4759.029432843799	5
0	3057	4760.721293501236	4
0	3059	4762.489280545746	3
0	3061	4775.033277568242	4
0	3064	4775.364749893222	5
0	3067	4783.592698472659	4
0	3069	4784.091030465158	3
0	3071	4789.912583482868	4
0	3074	4793.230485057294	5
0	3077	4794.341061544085	6
0	3080	4798.190692967859	5
0	3082	4801.63705978123	4
0	3084	4819.768095992432	5
0	3087	4821.035830724661	6
0	3090	4830.959652340864	7
0	3093	4835.718542311893	6
0	3095	4836.519400983978	5
0	3097	4839.221696561434	4
0	3099	4840.581063534411	3
0	3101	4850.901592897572	4
0	3104	4856.444489746408	5
0	3107	4858.287807573783	4
0	3109	4862.74775931456	5
0	3112	4865.094198946153	6
0	3115	4868.867261443247	7
0	3118	4877.19730013537	6
0	3120	4881.441859700533	7
0	3123	4883.289630277422	6
0	3125	4886.728871120068	7
0	3128	4890.287832542681	6
0	3130	4893.553585137966	5
0	3132	4894.787739144186	4
0	3134	4895.629855781717	5
0	3137	4898.169362903982	4
0	3139	4899.904013223609	5
0	3142	4906.186094017875	6
0	3145	4906.383619263267	7
0	3148	4919.186229950685	6
0	3150	4920.274366379466	5
0	3152	4921.017084281478	6
0	3155	4921.568201201457	7
0	3158	4922.087381206606	8
0	3160	4922.789696520785	7
0	3163	4923.932690183191	6
0	3165	4928.686252587038	7
0	3168	4935.081892965184	6
0	3170	4937.54146786422	5
0	3172	4944.533512806326	4
0	3174	4945.022435739964	3
0	3176	4952.020695424253	4
0	3179	4959.437670880982	5
0	3182	4960.947690802141	4
0	3184	4963.992197459964	5
0	3187	4966.020032381402	6
0	3190	4968.151916155142	7
0	3193	4971.04641529888	8
0	3195	4975.025088340757	7
0	3198	4977.776507978816	6
0	3200	4978.048112963282	5
0	3202	4982.528914910613	4
0	3204	4985.888024867267	5
0	3207	4987.028029661043	4
0	3209	4992.851695039166	3
0	3211	4992.946365743459	4
0	3214	4996.756553252997	5
0	3217	5011.979555605406	4
0	3219	5014.648075710744	5
0	3222	5021.851410042976	6
0	3225	5026.375226787742	5
0	3227	5032.517139654187	4
0	3229	5050.482217967986	3
0	3231	5054.589570272073	2
0	3233	5060.502174637488	3
0	3236	5076.994809662566	2
0	3238	5080.293410638549	3
0	3241	5081.255293373298	4
0	3244	5086.424608601722	5
0	3247	5087.451308019487	4
0	3249	5087.807693451978	3
0	3251	5089.833407924558	4
0	3254	5090.21535360846	3
0	3256	5091.508766844767	4
0	3259	5092.512359524329	5
0	3262	5096.355607889988	6
0	3265	5108.350427569356	7
0	3268	5108.542479805558	8
0	3270	5116.303533002522	9
0	3272	5125.262780553751	10
0	3274	5128.568470807513	11
0	3276	5129.160563563605	12
0	3278	5129.527834300755	13
0	3280	5134.468840524195	12
0	3283	5135.223453342101	11
0	3286	5144.167095231874	12
0	3288	5144.200562010324	11
0	3291	5144.978978405763	10
0	3294	5146.632702088703	11
0	3296	5147.257667890072	12
0	3298	5147.318031537968	13
0	3300	5148.699572756637	12
0	3303	5152.903335790078	13
0	3305	5160.036716328448	12
0	3308	5170.503383657152	13
0	3310	5177.021032653453	12
0	3313	5181.970890807132	11
0	3316	5186.90934045847	10
0	3319	5188.858266467542	9
0	3322	5189.670527785332	8
0	3325	5195.509711539788	9
0	3327	5196.983449347409	10
0	3329	5202.002947535246	11
0	3331	5215.372648299467	12
0	3333	5219.501295721168	13
0	3335	5220.710280820488	12
0	3338	5222.341977316082	13
0	3340	5223.146060650461	14
0	3342	5224.168613963411	13
0	3345	5224.556657403503	12
0	3348	5226.291216591941	13
0	3350	5228.462001101918	12
0	3353	5230.578305057941	11
0	3356	5234.773148367755	12
0	3358	5236.193041936246	11
0	3361	5237.718017636828	12
0	3363	5239.952897392668	13
0	3365	5241.788812211199	12
0	3368	5245.088477333041	13
0	3370	5253.756293672778	14
0	3372	5258.083939555953	15
0	3374	5260.737608990638	16
0	3376	5260.787948062346	15
0	3379	5263.195098273228	14
0	3382	5266.524934770579	13
0	3385	5269.517879059131	12
0	3388	5270.261805365661	13
0	3390	5270.294508267734	12
0	3393	5278.492522367314	13
0	3395	5278.728235405208	14
0	3397	5279.756189408224	13
0	3400	5286.9197473374	12
0	3403	5291.063168184187	11
0	3406	5295.047134143922	10
0	3409	5297.487863013026	9
0	3412	5299.290966910036	10
0	3414	5302.248409117134	9
0	3417	5303.689258433455	10
0	3419	5305.764759935708	9
0	3422	5307.550730640525	8
0	3425	5308.216903489625	7
0	3428	5312.044202261912	6
0	3430	5318.562752500716	7
0	3433	5318.676340455851	8
0	3435	5322.612028415595	7
0	3438	5325.841020281961	8
0	3440	5330.028868982723	7
0	3443	5333.542783283733	6
0	3445	5336.609481030807	5
0	3447	5338.306051706818	4
0	3449	5340.730975820558	3
0	3451	5344.331544054524	2
0	3453	5354.931519988071	3
0	3456	5367.93724590387	4
0	3459	5379.989377318324	3
0	3461	5382.430550658871	2
0	3463	5385.871141737263	3
0	3466	5393.277900966288	4
0	3469	5398.767205371355	3
0	3471	5400.375436520665	4
0	3474	5405.900546745429	5
0	3477	5410.864835254256	4
0	3479	5411.757317307613	5
0	3482	5415.637852882602	6
0	3485	5420.091107762672	7
0	3488	5421.22513097845	8
0	3490	5425.088716424259	7
0	3493	5431.717941544754	6
0	3495	5432.763252085628	5
0	3497	5433.10684014132	4
0	3499	5437.492741099372	5
0	3502	5438.003637991928	6
0	3505	5439.723857046674	5
0	3507	5442.870016120923	6
0	3510	5445.310488931165	5
0	3512	5454.591541606246	6
0	3515	5456.853641918758	7
0	3518	5457.160291831108	6
0	3520	5460.727492524702	5
0	3522	5463.581011426217	4
0	3524	5466.367299004822	3
0	3526	5470.210136907186	2
0	3528	5473.424061598164	3
0	3531	5478.230931036521	2
0	3533	5480.086333214947	3
0	3536	5480.197794515845	4
0	3539	5487.72636249225	3
0	3541	5488.990755723263	4
0	3544	5496.24343180089	5
0	3547	5499.433374594699	6
0	3550	5501.274026230455	5
0	3552	5504.711407369931	6
0	3555	5505.140734586658	5
0	3557	5508.356483022074	6
0	3560	5508.428458162827	5
0	3562	5513.070373048924	4
0	3564	5521.693373820193	5
0	3567	5530.124564143131	4
0	3569	5539.535879852953	5
0	3572	5539.747903486926	4
0	3574	5539.766719007143	5
0	3577	5542.896667992231	4
0	3579	5555.368710861994	5
0	3582	5558.035463838178	4
0	3584	5558.814926075172	3
0	3586	5562.589119832269	4
0	3589	5573.395680823766	3
0	3591	5583.486550779359	2
0	3593	5589.660226725324	3
0	3596	5590.93799902136	4
0	3599	5592.938796286736	5
0	3602	5595.787517836724	4
0	3604	5598.366369350362	5
0	3607	5608.249044868881	4
0	3609	5611.17468976826	5
0	3612	5615.190791044596	6
0	3615	5619.031273452961	5
0	3617	5619.201733918419	6
0	3620	5620.748364052321	5
0	3622	5622.584414564241	4
0	3624	5625.93698633724	3
0	3626	5629.33293249719	2
0	3628	5632.337535370354	1
0	3630	5634.1464754542	2
0	3633	5650.453652592282	3
0	3636	5650.744059311372	2
0	3638	5651.111112580557	3
0	3641	5661.644759165457	2
0	3643	5685.267525836606	3
0	3646	5704.080576136302	4
0	3649	5706.591082937349	5
0	3652	5707.827260963214	6
0	3655	5714.916575515808	7
0	3658	5716.454469924385	8
0	3660	5717.15026326873	9
0	3662	5718.349349968231	8
0	3665	5718.532892732152	7
0	3668	5728.856754175071	6
0	3670	5734.265428068041	7
0	3673	5739.039703658543	6
0	3675	5751.70446613283	5
0	3677	5753.98753935546	6
0	3680	5754.031659963524	5
0	3682	5754.544983594935	6
0	3685	5757.345658797378	7
0	3688	5759.543324739337	6
0	3690	5764.808157402247	7
0	3693	5768.133236783945	6
0	3695	5768.815154321676	7
0	3698	5778.971995585544	6
0	3700	5788.486907038197	7
0	3703	5788.78697319602	8
0	3705	5789.157838990676	9
0	3707	5793.792731743707	8
0	3710	5794.644082129076	7
0	3713	5795.18713049057	8
0	3715	5795.495475316495	7
0	3718	5801.433548136969	6
0	3720	5803.935255502661	5
0	3722	5803.995772114521	4
0	3724	5807.780866062463	3
0	3726	5814.880808930631	4
0	3729	5821.78245464472	5
0	3732	5824.921634056294	4
0	3734	5825.876449312078	5
0	3737	5836.199804830771	4
0	3739	5836.85667684715	5
0	3742	5843.655621179668	6
0	3745	5844.337703540648	7
0	3748	5845.453967405951	6
0	3750	5849.603106809446	5
0	3752	5859.9125920312	4
0	3754	5866.781816686284	3
0	3756	5883.659928481305	2
0	3758	5917.300380153032	3
0	3761	5919.014411092279	2
0	3763	5926.065378825484	3
0	3766	5927.961022169222	4
0	3769	5931.706069923698	5
0	3772	5935.887035451585	4
0	3774	5936.638327344801	3
0	3776	5951.015156370434	2
0	3778	5957.060259629454	3
0	3781	5973.464195569663	4
0	3784	5976.674504951112	5
0	3787	5980.203621167738	4
0	3789	5981.328985879077	5
0	3792	5984.319372213114	4
0	3794	5993.594159769109	3
0	3796	5995.435803418019	4
0	3799	6005.467932874564	5
0	3802	6008.740266701132	6
0	3805	6019.753477269247	7
0	3808	6019.848498858802	8
0	3810	6021.937979171943	7
0	3813	6028.271285152361	6
0	3815	6030.888743187236	7
0	3818	6031.310999796683	6
0	3820	6042.657563482712	5
0	3822	6042.668268605507	4
0	3824	6050.625226195454	5
0	3827	6054.550247118054	4
0	3829	6060.604132822178	5
0	3832	6060.985643707048	6
0	3835	6067.135564161038	7
0	3838	6067.242934416668	6
0	3840	6068.92634296268	7
0	3843	6069.243179392117	6
0	3845	6077.795759154012	7
0	3848	6080.593890751569	8
0	3850	6083.763227988562	9
0	3852	6085.554411444432	10
0	3854	6091.692401540481	9
0	3857	6091.829197351223	10
0	3859	6092.934230491761	9
0	3862	6092.994095447842	8
0	3865	6094.912304693117	7
0	3868	6097.040613030076	6
0	3870	6097.71123298056	7
0	3873	6098.925117956066	6
0	3875	6099.197857163178	5
0	3877	6099.653355021795	6
0	3880	6104.828590130963	5
0	3882	6116.135191725173	6
0	3885	6118.830375448964	5
0	3887	6119.683647979686	6
0	3890	6120.509853755963	7
0	3893	6125.051097282035	6
0	3895	6136.563414066631	5
0	3897	6141.047383777803	4
0	3899	6148.441743142515	5
0	3902	6161.159499057364	6
0	3905	6161.291048002977	5
0	3907	6163.703875659412	4
0	3909	6172.419610592558	5
0	3912	6175.112069515835	6
0	3915	6176.657012049898	7
0	3918	6180.152755802264	8
0	3920	6180.775085478076	9
0	3922	6181.592796116681	8
0	3925	6181.698712118331	7
0	3928	6184.897191103915	8
0	3930	6190.002064950718	7
0	3933	6193.440744984229	6
0	3935	6195.509172523054	5
0	3937	6199.352508516889	4
0	3939	6202.851998462306	5
0	3942	6204.643039481118	4
0	3944	6208.381872030072	5
0	3947	6217.236095948651	6
0	3950	6224.04986267762	5
0	3952	6226.564120147575	4
0	3954	6228.962501695859	3
0	3956	6228.977524295022	4
0	3959	6229.205772504549	5
0	3962	6229.811447926781	4
0	3964	6230.07412075296	5
0	3967	6239.313231422113	4
0	3969	6244.209352755348	5
0	3972	6250.475251261789	4
0	3974	6267.475786958064	5
0	3977	6268.38904391431	6
0	3980	6271.020629642551	7
0	3983	6280.478220451388	6
0	3985	6286.086787703788	7
0	3988	6295.707060671153	6
0	3990	6301.337457471555	5
0	3992	6333.432955176941	4
0	3994	6333.816311953382	3
0	3996	6340.279112181718	4
0	3999	6340.771571282364	3
0	4001	6342.377024358999	4
0	4004	6354.742259872323	5
0	4007	6362.321225544176	6
0	4010	6368.115699283712	5
0	4012	6372.315015118934	4
0	4014	6391.863885856156	5
0	4017	6392.127717529748	6
0	4020	6395.969273245518	7
0	4023	6396.130380049079	6
0	4025	6398.524605812412	7
0	4028	6398.845975071214	8
0	4030	6400.507419408796	7
0	4033	6406.991403252738	8
0	4035	6414.156916387703	7
0	4038	6414.477264821939	8
0	4040	6414.734248863008	7
0	4043	6418.174373383083	6
0	4045	6424.114388035437	5
0	4047	6426.492941402233	6
0	4050	6428.61644903818	7
0	4053	6429.808367849203	8
0	4055	6432.391551977918	7
0	4058	6438.004010929156	6
0	4060	6443.195316987165	7
0	4063	6448.715788426115	8
0	4065	6452.760913965554	9
0	4067	6453.026996594853	10
0	4069	6453.577707879448	9
0	4072	6455.639925771852	8
0	4075	6460.083496195872	7
0	4078	6460.975899559981	6
0	4080	6464.426707344601	5
0	4082	6466.844693835122	4
0	4084	6469.659070935063	3
0	4086	6473.170590671215	4
0	4089	6473.203024686649	5
0	4092	6475.127051870078	4
0	4094	6475.379473132548	3
0	4096	6478.326868714758	4
0	4099	6485.063847425033	3
0	4101	6493.540054869918	2
0	4103	6493.800586130437	1
0	4105	6502.737985124744	2
0	4108	6505.072226574914	3
0	4111	6508.255087483599	2
0	4113	6512.898602357824	3
0	4116	6515.074084845712	4
0	4119	6518.150390569725	5
0	4122	6519.709527289854	6
0	4125	6523.338022780456	5
0	4127	6523.815244111731	4
0	4129	6527.592797898643	3
0	4131	6528.901114895517	2
0	4133	6531.010280290063	3
0	4136	6537.971255023037	2
0	4138	6545.351081868264	3
0	4141	6546.409356684698	4
0	4144	6546.463044700644	3
0	4146	6549.884999776346	2
0	4148	6552.65138948549	1
0	4150	6554.614790414788	2
0	4153	6557.715058351981	3
0	4156	6570.920688217101	4
0	4159	6572.454620336367	3
0	4161	6574.049077966654	4
0	4164	6577.279460503947	3
0	4166	6597.513012117606	4
0	4169	6606.33619476866	3
0	4171	6607.030095531298	2
0	4173	6621.421719719673	3
0	4176	6624.454891291793	4
0	4179	6624.857784312662	5
0	4182	6625.049676482281	4
0	4184	6627.367609886313	3
0	4186	6650.426350640724	4
0	4189	6655.107281233163	3
0	4191	6655.326713477059	4
0	4194	6656.968865014952	3
0	4196	6662.128309574107	2
0	4198	6662.922407865095	1
0	4200	6668.043261501661	2
0	4203	6677.784148960698	1
0	4205	6678.713441579842	2
0	4208	6687.201515999247	3
0	4211	6697.343627247043	4
0	4214	6700.449722372909	5
0	4217	6703.267122476665	6
0	4220	6703.354827981083	5
0	4222	6704.429645975036	6
0	4225	6705.204935741176	5
0	4227	6711.723247484153	6
0	4230	6712.008033127552	5
0	4232	6719.266213733744	6
0	4235	6720.673154570236	5
0	4237	6725.463604779875	4
0	4239	6726.698125238781	3
0	4241	6731.267860087952	2
0	4243	6736.211884354095	3
0	4246	6742.244023261374	4
0	4249	6748.016910546308	3
0	4251	6751.901894741434	4
0	4254	6760.112287935148	5
0	4257	6766.197434943198	4
0	4259	6767.469783116011	3
0	4261	6777.522823430199	2
0	4263	6781.179824687855	1
0	4265	6788.121948113212	2
0	4268	6798.245813500433	1
0	4270	6804.619368107727	2
0	4273	6807.812840785081	1
0	4275	6810.144562248087	0
0	4277	6811.111470920403	1
0	4280	6814.899056216996	2
0	4283	6818.248532560269	1
0	4285	6823.573089017563	2
0	4288	6829.356286428821	3
0	4291	6839.163814672234	2
0	4293	6841.108300443934	3
0	4296	6845.729949828819	2
0	4298	6851.648991926629	3
0	4301	6855.204327508177	2
0	4303	6859.883679470108	3
0	4306	6860.823289949754	4
0	4309	6867.042355670164	3
0	4311	6867.662340172105	2
0	4313	6867.948155670208	3
0	4316	6875.084213554181	4
0	4319	6878.135403408986	3
0	4321	6882.999456213103	4
0	4324	6883.227552362788	5
0	4327	6887.000868400033	4
0	4329	6896.992345905087	5
0	4332	6898.472053015906	6
0	4335	6910.56505919705	7
0	4338	6911.51656163679	8
0	4340	6913.003911053254	7
0	4343	6927.684308829315	8
0	4345	6933.918257800726	7
0	4348	6937.037942133848	8
0	4350	6938.661220565876	7
0	4353	6942.051488473766	6
0	4355	6944.955153709727	7
0	4358	6948.46342222683	8
0	4360	6950.054770032594	7
0	4363	6952.962613247053	6
0	4365	6961.820867175203	5
0	4367	6961.882300404172	4
0	4369	6965.82032953538	5
0	4372	6972.489787978689	6
0	4375	6978.155012467385	5
0	4377	6980.830381948932	4
0	4379	6990.311980719909	5
0	4382	6996.386631901939	6
0	4385	7001.003729909341	5
0	4387	7005.662382608907	4
0	4389	7006.756326732984	3
0	4391	7007.630555940334	2
0	4393	7012.249815617638	1
0	4395	7013.999386934591	0
0	4397	7028.409590876937	1
0	4400	7035.976711894192	0
0	4402	7040.183572604508	1
0	4405	7044.237957660936	2
0	4408	7049.996124404905	1
0	4410	7058.169929162085	2
0	4413	7063.986635401104	1
0	4415	7079.66007605098	2
0	4418	7083.135584348288	3
0	4421	7083.652171551465	4
0	4424	7089.440449792666	3
0	4426	7094.116253191663	4
0	4429	7094.773720020386	3
0	4431	7103.883679968885	2
0	4433	7110.095460514728	3
0	4436	7121.05481946619	4
0	4439	7127.706148375255	3
0	4441	7134.856096757152	2
0	4443	7136.465034132516	1
0	4445	7141.731495239879	2
0	4448	7144.030570242874	1
0	4450	7145.591072609845	2
0	4453	7149.208589211197	3
0	4456	7149.588964002273	2
0	4458	7150.091790145517	3
0	4461	7150.831965707017	4
0	4464	7156.912403543503	5
0	4467	7160.263290388505	6
0	4470	7162.415044399732	7
0	4473	7168.970293368457	6
0	4475	7172.345819514426	5
0	4477	7188.16097070089	4
0	4479	7189.963821825234	5
0	4482	7191.0234575173	6
0	4485	7194.909146169095	5
0	4487	7195.18271818783	6
0	4490	7200.555258606972	5
0	4492	7201.444469050699	4
0	4494	7201.766216018037	5
0	4497	7212.051136136429	6
0	4500	7217.315526507699	5
0	4502	7227.956728910718	6
0	4505	7231.143750804215	5
0	4507	7232.543926079743	6
0	4510	7236.342948251849	5
0	4512	7236.550764856965	4
0	4514	7237.104661241527	5
0	4517	7237.912202089001	6
0	4520	7247.448084179343	5
0	4522	7249.479515132448	6
0	4525	7254.908683009411	7
0	4528	7258.016695909916	8
0	4530	7263.432937915687	9
0	4532	7263.828621262824	8
0	4535	7264.270871954481	7
0	4538	7265.014434160587	6
0	4540	7266.127609061788	7
0	4543	7266.631263035393	6
0	4545	7267.062994074431	5
0	4547	7272.967819023287	6
0	4550	7277.319430881003	7
0	4553	7278.492006753871	6
0	4555	7283.965852087017	7
0	4558	7284.380611708226	6
0	4560	7285.409456538526	7
0	4563	7294.263333374828	8
0	4565	7295.42285575075	9
0	4567	7308.808751917259	10
0	4569	7310.925548813001	11
0	4571	7318.37812608071	10
0	4574	7320.66313450049	9
0	4577	7328.950185827542	8
0	4580	7331.861453847438	7
0	4583	7335.341677244907	6
0	4585	7341.25659376406	7
0	4588	7341.370207876856	6
0	4590	7343.207401156365	7
0	4593	7344.613553579785	8
0	4595	7348.199066171901	9
0	4597	7349.945274469532	8
0	4600	7356.159596938701	7
0	4603	7359.344558914278	8
0	4605	7360.979384149997	7
0	4608	7362.629142105772	8
0	4610	7363.316379108691	9
0	4612	7363.956368083822	10
0	4614	7371.383243742832	11
0	4616	7371.956958500783	10
0	4619	7373.578869237695	11
0	4621	7373.64475213719	10
0	4624	7378.309833498933	11
0	4626	7379.256374553258	10
0	4629	7379.267960560422	11
0	4631	7382.497178578661	10
0	4634	7386.792511044053	9
0	4637	7386.920517908135	8
0	4640	7395.134874423877	7
0	4643	7400.081599791304	8
0	4645	7400.148105896944	7
0	4648	7400.296375533662	8
0	4650	7401.237700735966	7
0	4653	7403.351147478684	6
0	4655	7408.460551652631	7
0	4658	7409.440302557902	6
0	4660	7411.925502413276	7
0	4663	7415.845023725318	6
0	4665	7416.746491413242	5
0	4667	7417.533924398843	6
0	4670	7419.371570487835	7
0	4673	7422.059184260867	8
0	4675	7427.85089371712	9
0	4677	7428.977239644939	8
0	4680	7430.045528266983	7
0	4683	7431.039332775393	8
0	4685	7431.950101948927	9
0	4687	7435.043638888284	8
0	4690	7436.70769469473	7
0	4693	7440.338082512318	6
0	4695	7441.228063754696	5
0	4697	7441.521136497907	4
0	4699	7444.269296158366	3
0	4701	7447.469886510514	4
0	4704	7450.395570321269	3
0	4706	7460.539823502187	4
0	4709	7462.85114561748	5
0	4712	7466.299957033305	6
0	4715	7471.050283901426	7
0	4718	7471.629331649024	8
0	4720	7481.930710522662	9
0	4722	7483.046719726649	10
0	4724	7484.145993014757	9
0	4727	7485.81100408354	10
0	4729	7491.951988836361	9
0	4732	7501.092666136098	8
0	4735	7503.863542521356	7
0	4738	7514.694715072825	6
0	4740	7515.317235787933	7
0	4743	7521.288459626011	6
0	4745	7526.847327478188	5
0	4747	7527.932153813352	6
0	4750	7530.287458057682	7
0	4753	7531.626060885078	6
0	4755	7531.839930498458	5
0	4757	7532.924916671815	6
0	4760	7533.248293660748	7
0	4763	7538.819000429745	8
0	4765	7541.268354243911	9
0	4767	7544.334516015902	8
0	4770	7548.669856423752	7
0	4773	7549.454187113084	8
0	4775	7549.90631335401	9
0	4777	7552.280134986725	8
0	4780	7552.692879194781	9
0	4782	7556.542783426428	8
0	4785	7557.684514745803	9
0	4787	7560.020463575835	8
0	4790	7563.064511174973	7
0	4793	7567.100499112723	8
0	4795	7568.862549900255	7
0	4798	7569.021398805619	6
0	4800	7569.2135211466	5
0	4802	7578.555641960713	6
0	4805	7580.206535184485	5
0	4807	7580.579073182125	4
0	4809	7584.846557844776	3
0	4811	7588.518910194575	4
0	4814	7588.977260184543	3
0	4816	7598.013492589233	2
0	4818	7604.073634836355	3
0	4821	7605.646534445444	2
0	4823	7608.483794646344	3
0	4826	7614.907868640048	4
0	4829	7618.02790955878	3
0	4831	7619.483016978097	2
0	4833	7620.66715228548	3
0	4836	7620.864168255396	2
0	4838	7623.815755756066	1
0	4840	7624.567428283915	2
0	4843	7625.638600811493	3
0	4846	7629.849015303725	2
0	4848	7630.196000582238	3
0	4851	7631.429700109879	4
0	4854	7635.278680660518	5
0	4857	7639.538723771729	4
0	4859	7641.445371618326	3
0	4861	7647.188980447536	4
0	4864	7649.303539142688	3
0	4866	7652.174845928286	4
0	4869	7652.805835082536	5
0	4872	7659.438755057999	6
0	4875	7661.811789472759	5
0	4877	7661.866257427116	6
0	4880	7676.017197537621	5
0	4882	7679.189943187806	6
0	4885	7680.93846578633	5
0	4887	7683.094985619882	6
0	4890	7694.079939543515	5
0	4892	7696.094836175831	6
0	4895	7696.809674610915	7
0	4898	7697.092788894942	6
0	4900	7699.073257308154	7
0	4903	7699.380646409095	8
0	4905	7702.986148417691	7
0	4908	7709.210201372204	8
0	4910	7709.304237952405	9
0	4912	7710.021062605983	10
0	4914	7716.918324219134	11
0	4916	7717.375288324998	10
0	4919	7717.771763393469	9
0	4922	7720.469426007846	8
0	4925	7730.29019421621	7
0	4928	7736.730320788303	8
0	4930	7738.907189087953	7
0	4933	7739.948805953404	6
0	4935	7740.163947956641	5
0	4937	7745.905334448767	4
0	4939	7751.530398171219	3
0	4941	7760.384318788775	2
0	4943	7777.106244731773	1
0	4945	7782.44269543916	2
0	4948	7790.791029375884	3
0	4951	7792.090957132348	4
0	4954	7793.7461310871	5
0	4957	7802.431700385933	4
0	4959	7802.771574186642	5
0	4962	7810.88393796546	6
0	4965	7816.004472100501	5
0	4967	7818.333491606755	6
0	4970	7824.380299716194	5
0	4972	7825.948226103104	4
0	4974	7825.966226752463	3
0	4976	7857.34368899003	2
0	4978	7858.619913939634	3
0	4981	7866.26085958705	4
0	4984	7869.096736117091	5
0	4987	7883.023885565552	6
0	4990	7883.952984460633	7
0	4993	7888.8359280622	8
0	4995	7889.717021758116	7
0	4998	7892.388187306086	6
0	5000	7895.936745436524	5
0	5002	7900.952379340197	6
0	5005	7911.606844799119	7
0	5008	7914.966402851719	8
0	5010	7918.120450482192	9
0	5012	7921.071777206849	10
0	5014	7928.622129817404	9
0	5017	7932.997547361683	8
0	5020	7933.263308253536	7
0	5023	7934.085403661607	8
0	5025	7937.187909558463	7
0	5028	7945.307813332956	8
0	5030	7959.134150070143	7
0	5033	7960.287432289341	8
0	5035	7960.334855275825	9
0	5037	7967.824498963556	8
0	5040	7968.063116101139	9
0	5042	7969.735703998531	10
0	5044	7970.966149899269	11
0	5046	7979.427649386332	10
0	5049	7979.594575928429	11
0	5051	7984.411916075148	10
0	5054	7985.601868655791	9
0	5057	7986.924728719746	8
0	5060	7989.832218426577	9
0	5062	7994.588792093209	8
0	5065	8008.868428666517	7
0	5068	8012.100754919977	6
0	5070	8013.612679275074	5
0	5072	8016.95678315897	4
0	5074	8020.344248102726	5
0	5077	8022.347552150907	4
0	5079	8028.65848942963	3
0	5081	8036.92200587645	4
0	5084	8037.482037241411	5
0	5087	8039.152991414186	4
0	5089	8042.320467868121	3
0	5091	8043.263649978915	2
0	5093	8044.426604761142	3
0	5096	8046.051333371767	2
0	5098	8048.240783947308	3
0	5101	8050.863685049685	2
0	5103	8054.869570394485	3
0	5106	8056.224975694694	4
0	5109	8056.471435788931	3
0	5111	8062.146862281767	4
0	5114	8063.918098598649	5
0	5117	8065.055551632119	4
0	5119	8074.240191406611	5
0	5122	8075.660540417181	4
0	5124	8081.292363457139	5
0	5127	8085.796003322872	4
0	5129	8088.800275669898	3
0	5131	8096.158317868758	4
0	5134	8097.221724855334	5
0	5137	8101.897456024504	6
0	5140	8116.997236545093	5
0	5142	8117.903585290445	4
0	5144	8120.825172433151	5
0	5147	8123.05173240967	6
0	5150	8127.420604475424	5
0	5152	8127.672280690072	4
0	5154	8128.697447760281	3
0	5156	8129.998774570649	4
0	5159	8136.607241113742	3
0	5161	8143.122358056838	4
0	5164	8152.666366303265	3
0	5166	8177.547618789277	2
0	5168	8198.700838248185	3
0	5171	8200.779544055905	2
0	5173	8209.576572968708	1
0	5175	8218.46762265567	2
0	5178	8220.162354498443	1
0	5180	8230.635377565539	2
0	5183	8233.849110259649	3
0	5186	8236.411900220594	2
0	5188	8249.111192322091	3
0	5191	8249.262112801817	4
0	5194	8260.381077723466	3
0	5196	8268.935139804541	4
0	5199	8269.645881496497	5
0	5202	8271.286040012084	6
0	5205	8271.665425590716	5
0	5207	8276.782528717076	4
0	5209	8278.699843006728	3
0	5211	8292.162042348996	4
0	5214	8296.09851413963	5
0	5217	8304.395571095162	6
0	5220	8312.416423906252	5
0	5222	8316.189534965278	4
0	5224	8321.793778867605	5
0	5227	8325.903803059017	6
0	5230	8329.241036301644	5
0	5232	8333.90653128851	4
0	5234	8335.329706642646	5
0	5237	8336.728394638927	6
0	5240	8339.086266767625	5
0	5242	8341.226709316111	4
0	5244	8343.555883922134	5
0	5247	8347.066681254318	4
0	5249	8348.473134118304	5
0	5252	8368.880776451257	4
0	5254	8371.802868735353	5
0	5257	8378.80588121074	4
0	5259	8381.780250739748	5
0	5262	8384.515776258611	6
0	5265	8397.468531444234	5
0	5267	8398.479279306542	4
0	5269	8408.365670723992	5
0	5272	8408.479388406772	4
0	5274	8412.094499100294	3
0	5276	8421.05921486422	4
0	5279	8422.994595213907	3
0	5281	8429.609917715365	2
0	5283	8431.799682330783	3
0	5286	8441.427731578748	2
0	5288	8443.79120755195	3
0	5291	8448.548327732686	2
0	5293	8458.661625221592	3
0	5296	8459.896373237529	2
0	5298	8460.849016348941	3
0	5301	8464.02081931895	2
0	5303	8466.196450047579	3
0	5306	8473.151642147083	2
0	5308	8487.992553283363	3
0	5311	8490.291200019794	2
0	5313	8492.574450804188	1
0	5315	8512.278043947892	2
0	5318	8513.915108292321	3
0	5321	8516.47012036896	4
0	5324	8525.605080040149	5
0	5327	8528.139149726636	4
0	5329	8531.949198930604	5
0	5332	8531.957528735175	4
0	5334	8542.160407147618	5
0	5337	8544.55994103015	4
0	5339	8547.075287998964	5
0	5342	8547.236393683576	6
0	5345	8547.638300072583	5
0	5347	8548.540024064937	4
0	5349	8549.39031941349	5
0	5352	8550.513535843037	6
0	5355	8552.399673615653	7
0	5358	8560.098204689222	6
0	5360	8560.712380300626	5
0	5362	8560.720742026456	4
0	5364	8574.508638418111	5
0	5367	8576.435286944971	4
0	5369	8579.21341369947	5
0	5372	8581.507492992469	6
0	5375	8582.208394355697	7
0	5378	8585.732664493438	6
0	5380	8587.595809293998	7
0	5383	8587.743020652756	8
0	5385	8591.785622515533	7
0	5388	8592.997848861309	8
0	5390	8599.127454471369	9
0	5392	8600.104898532985	8
0	5395	8601.07485530978	7
0	5398	8609.655624427365	8
0	5400	8610.258183671821	7
0	5403	8610.698617118932	6
0	5405	8617.145693425827	5
0	5407	8618.924948835368	4
0	5409	8621.710485355021	3
0	5411	8624.699768896611	4
0	5414	8633.199457452516	3
0	5416	8633.978625948653	2
0	5418	8643.140532453012	3
0	5421	8656.089784260527	4
0	5424	8656.743749914879	5
0	5427	8657.991020926859	6
0	5430	8658.545604426393	5
0	5432	8669.347090440836	6
0	5435	8670.030815352876	7
0	5438	8678.534693167283	8
0	5440	8678.977527991984	9
0	5442	8691.839719272747	8
0	5445	8692.124707776065	9
0	5447	8695.100813892985	10
0	5449	8697.306519730314	9
0	5452	8703.903579040456	8
0	5455	8704.433415886496	9
0	5457	8705.470950668714	8
0	5460	8706.941893047364	7
0	5463	8708.846734779995	6
0	5465	8711.60288947677	7
0	5468	8718.510238399801	8
0	5470	8721.29807983987	7
0	5473	8723.290896918031	6
0	5475	8726.225846239744	7
0	5478	8727.971428917823	8
0	5480	8728.209291674114	7
0	5483	8728.442078887575	6
0	5485	8731.598477669162	5
0	5487	8734.699163651942	4
0	5489	8739.783700004115	3
0	5491	8746.341282257726	4
0	5494	8752.421636836578	5
0	5497	8764.448638411114	6
0	5500	8764.782656680018	7
0	5503	8776.61332603896	8
0	5505	8777.553064745056	7
0	5508	8784.688021408055	6
0	5510	8787.250555909628	7
0	5513	8791.642510267718	6
0	5515	8796.762984524768	7
0	5518	8797.058125232321	8
0	5520	8798.971838025459	7
0	5523	8800.331175829982	8
0	5525	8802.873181771221	7
0	5528	8805.04743058508	6
0	5530	8807.322926213117	7
0	5533	8808.861528369238	6
0	5535	8812.09449451584	5
0	5537	8814.867916944043	4
0	5539	8826.086326854345	5
0	5542	8830.183576541161	6
0	5545	8842.979160680714	5
0	5547	8848.643422269939	6
0	5550	8852.883265373593	5
0	5552	8859.328459241346	6
0	5555	8862.673198376052	5
0	5557	8863.523035977808	4
0	5559	8872.826095031756	5
0	5562	8879.771727695932	6
0	5565	8881.751754986158	5
0	5567	8883.891653921647	4
0	5569	8905.541350041109	3
0	5571	8906.091949383714	4
0	5574	8909.773390207986	3
0	5576	8916.642020325934	4
0	5579	8926.066566992947	5
0	5582	8933.290897722155	4
0	5584	8938.17638448566	5
0	5587	8938.675814992984	4
0	5589	8939.647848260858	3
0	5591	8946.110782528116	4
0	5594	8947.14029399394	3
0	5596	8959.003462216215	4
0	5599	8960.085373572136	3
0	5601	8966.285497413543	2
0	5603	8968.539905670919	3
0	5606	8969.182718429505	4
0	5609	8970.874931407704	5
0	5612	8978.745542416625	6
0	5615	8979.387017525412	7
0	5618	8987.748600106499	8
0	5620	8989.572839423898	9
0	5622	8990.625563254374	8
0	5625	8995.399448632003	9
0	5627	8997.563754423505	10
0	5629	9001.536754684831	9
0	5632	9009.638615166025	8
0	5635	9012.156039300871	7
0	5638	9015.047062339044	8
0	5640	9018.011846104841	9
0	5642	9031.839012970458	10
0	5644	9035.601575108104	11
0	5646	9043.752032044773	10
0	5649	9044.296384037818	9
0	5652	9046.081602350829	8
0	5655	9047.564571755684	9
0	5657	9059.042859535495	10
0	5659	9061.668112304668	9
0	5662	9062.30856914077	8
0	5665	9066.307281168693	7
0	5668	9071.541300079003	6
0	5670	9075.001397288209	5
0	5672	9076.854591216995	4
0	5674	9076.962289446286	5
0	5677	9080.874526329711	6
0	5680	9083.067841112119	5
0	5682	9084.703176401888	4
0	5684	9085.25095650831	3
0	5686	9088.996245984875	2
0	5688	9090.731787620435	3
0	5691	9091.165014484175	2
0	5693	9103.96244025418	1
0	5695	9115.220814552435	2
0	5698	9117.478525287382	1
0	5700	9126.368764395275	2
0	5703	9126.393455014561	1
0	5705	9143.920912684732	0
0	5707	9148.183136040806	1
0	5710	9154.377988920382	2
0	5713	9175.33674718273	1
0	5715	9187.511924692868	2
0	5718	9191.393890892744	3
0	5721	9194.911667930604	4
0	5724	9195.313306490003	3
0	5726	9200.492509098671	2
0	5728	9211.066720675395	3
0	5731	9222.913751213665	2
0	5733	9224.136554894907	1
0	5735	9226.115112330281	2
0	5738	9230.036367439581	3
0	5741	9241.36854508277	2
0	5743	9245.192147691708	3
0	5746	9248.562573371572	2
0	5748	9255.262310285009	3
0	5751	9260.275353457879	2
0	5753	9264.474779041071	3
0	5756	9264.672590363418	4
0	5759	9270.164292240994	5
0	5762	9270.738482717415	4
0	5764	9271.836245725732	5
0	5767	9276.403698190611	6
0	5770	9277.681514116983	7
0	5773	9280.489799636597	6
0	5775	9284.800099230138	5
0	5777	9285.892689655401	6
0	5780	9286.662709613589	7
0	5783	9290.637605227629	8
0	5785	9291.395746348015	7
0	5788	9291.655594451561	8
0	5790	9291.721541119639	9
0	5792	9297.880838221023	10
0	5794	9303.579881127523	9
0	5797	9304.707397382871	8
0	5800	9308.821434642942	9
0	5802	9312.810292808055	10
0	5804	9313.566775073319	11
0	5806	9316.095753318445	12
0	5808	9318.397177664894	11
0	5811	9318.631649979472	10
0	5814	9327.144369859208	9
0	5817	9329.254475004132	8
0	5820	9337.419379007148	7
0	5823	9337.794288939871	6
0	5825	9340.990998346323	5
0	5827	9343.443372029165	4
0	5829	9351.6216909258	3
0	5831	9358.573788599481	2
0	5833	9364.727313158086	1
0	5835	9367.492887716819	2
0	5838	9377.587208960468	3
0	5841	9379.48104276069	2
0	5843	9384.120222613862	3
0	5846	9386.547796416049	4
0	5849	9388.074441256831	3
0	5851	9396.077779673588	2
0	5853	9406.574968909378	3
0	5856	9406.596702554985	4
0	5859	9414.796827956581	3
0	5861	9415.194300198012	4
0	5864	9419.658475407947	5
0	5867	9421.81564222782	4
0	5869	9422.273310906066	3
0	5871	9435.394234578663	4
0	5874	9448.135211481548	3
0	5876	9448.960398141164	2
0	5878	9449.16739727086	1
0	5880	9453.846182311697	2
0	5883	9464.283682676214	3
0	5886	9467.200047660098	4
0	5889	9471.419727474467	5
0	5892	9475.927865134194	6
0	5895	9476.485366533841	7
0	5898	9489.099814291496	8
0	5900	9489.919897385068	9
0	5902	9490.080548281457	8
0	5905	9492.00320474952	7
0	5908	9493.501777194957	6
0	5910	9494.378018721489	5
0	5912	9505.1458692857	6
0	5915	9505.667692109739	5
0	5917	9506.331772855364	4
0	5919	9506.864453262445	5
0	5922	9513.860909251938	4
0	5924	9515.342355539707	3
0	5926	9515.997779078046	4
0	5929	9516.031435544832	3
0	5931	9519.152679176591	2
0	5933	9543.226337124127	1
0	5935	9548.225896380556	2
0	5938	9561.766384558572	3
0	5941	9565.735158550809	2
0	5943	9568.703122276694	3
0	5946	9576.87998966333	2
0	5948	9578.255720750653	3
0	5951	9586.456165169376	4
0	5954	9586.54024456687	3
0	5956	9589.215143921836	4
0	5959	9591.009336598519	5
0	5962	9595.341838333996	6
0	5965	9595.950454745394	7
0	5968	9596.980555042254	6
0	5970	9601.141125667893	7
0	5973	9607.022096857209	8
0	5975	9609.802056206062	7
0	5978	9614.730548550032	6
0	5980	9615.147061891885	5
0	5982	9617.723385742671	6
0	5985	9624.240464528577	5
0	5987	9626.160886339404	4
0	5989	9634.325302935717	5
0	5992	9637.827819967018	4
0	5994	9645.610805795305	3
0	5996	9650.003735284437	4
0	5999	9655.298145019979	3
0	6001	9664.665583287619	2
0	6003	9665.533859599177	3
0	6006	9676.862215869025	2
0	6008	9677.252360721627	1
0	6010	9682.976131945633	2
0	6013	9686.384764352612	3
0	6016	9695.797941651388	4
0	6019	9701.067899323374	5
0	6022	9711.22135677406	6
0	6025	9711.608413225054	7
0	6028	9712.493871389523	6
0	6030	9717.911044172395	5
0	6032	9718.963208173108	4
0	6034	9730.404929062012	5
0	6037	9731.496130568654	6
0	6040	9738.304369034575	5
0	6042	9744.250937252637	4
0	6044	9745.400895584878	3
0	6046	9759.51963378387	4
0	6049	9759.573885451789	3
0	6051	9763.429206104773	4
0	6054	9769.248534653182	5
0	6057	9777.545635507684	4
0	6059	9777.568619068229	3
0	6061	9791.869967433611	2
0	6063	9793.697176347209	3
0	6066	9802.891677227112	2
0	6068	9811.701017731105	3
0	6071	9813.550533542763	4
0	6074	9816.028361766004	5
0	6077	9816.666598459839	4
0	6079	9827.255497178436	5
0	6082	9830.281817240693	4
0	6084	9835.68928867624	5
0	6087	9846.625431597877	4
0	6089	9849.354663076691	3
0	6091	9858.973790669586	4
0	6094	9860.940447777023	5
0	6097	9865.830766363152	6
0	6100	9867.567980137142	7
0	6103	9880.874931596765	6
0	6105	9889.850241826809	5
0	6107	9892.425968416584	6
0	6110	9901.303583243449	7
0	6113	9906.130818457864	6
0	6115	9910.190798401052	5
0	6117	9912.18490229619	6
0	6120	9918.702156107232	5
0	6122	9919.34174578989	6
0	6125	9924.634422227355	7
0	6128	9928.578268989725	6
0	6130	9938.384035136366	5
0	6132	9939.866966107302	4
0	6134	9940.01429917629	3
0	6136	9946.959805646458	2
0	6138	9967.352585320612	3
0	6141	9969.000387494376	4
0	6144	9969.706726118528	3
0	6146	9972.330868416538	2
0	6148	9975.557437578659	3
0	6151	9978.814072383734	4
0	6154	9982.816185150182	5
0	6157	9992.793350608678	6
0	6160	9999.252985508611	5
0	6162	10000.15006720007	4
0	6164	10002.957555758513	5
0	6167	10004.142076458711	6
0	6170	10009.710813283055	5
0	6172	10012.03241780288	6
0	6175	10023.20596328778	5
0	6177	10025.526103302765	4
0	6179	10032.367075240953	3
0	6181	10035.435382871527	2
0	6183	10036.62154596443	3
0	6186	10036.920133332309	4
0	6189	10047.811941683306	5
0	6192	10048.054269348966	4
0	6194	10054.117836488952	5
0	6197	10055.202792925471	4
0	6199	10060.223589805937	3
0	6201	10060.256144438443	4
0	6204	10062.089969814133	5
0	6207	10069.572613397018	4
0	6209	10075.744805028587	5
0	6212	10084.201941321566	6
0	6215	10084.704964541214	5
0	6217	10084.775649661709	4
0	6219	10084.815192441838	3
0	6221	10086.874531065374	2
0	6223	10090.410894831824	1
0	6225	10108.038655141363	0
0	6227	10137.778732456962	1
0	6230	10139.385579087509	2
0	6233	10147.916336699704	1
0	6235	10186.735300595895	2
0	6238	10188.249936160775	3
0	6241	10191.678819246484	4
0	6244	10210.133378271008	5
0	6247	10212.247718987997	4
0	6249	10214.350472578835	5
0	6252	10217.158157231751	6
0	6255	10228.1451518408	5
0	6257	10229.178074432721	6
0	6260	10232.47662408306	5
0	6262	10238.58096849008	6
0	6265	10238.866314551231	5
0	6267	10243.021703573805	6
0	6270	10257.459362142609	5
0	6272	10260.858668439302	6
0	6275	10272.93976334003	5
0	6277	10274.210562892856	4
0	6279	10274.421115682506	3
0	6281	10285.774996744292	4
0	6284	10291.197322421497	3
0	6286	10293.027432572047	2
0	6288	10294.867226264915	1
0	6290	10296.958995243246	2
0	6293	10308.028196614928	3
0	6296	10322.713920234231	4
0	6299	10323.837034845854	5
0	6302	10338.511657625414	4
0	6304	10344.810678603333	3
0	6306	10370.424682658839	4
0	6309	10378.859158472481	5
0	6312	10386.061490724645	6
0	6315	10386.857119743386	7
0	6318	10387.68736988855	8
0	6320	10393.899368288963	7
0	6323	10396.414312097339	8
0	6325	10396.920489348248	7
0	6328	10401.37928536765	8
0	6330	10404.312933288562	7
0	6333	10404.827495257547	6
0	6335	10405.875428858251	5
0	6337	10406.194565199443	4
0	6339	10406.276552565722	3
0	6341	10409.506148043873	2
0	6343	10419.824245161036	3
0	6346	10423.58586903922	2
0	6348	10428.42273467868	1
0	6350	10437.510940365982	2
0	6353	10440.978311575695	1
0	6355	10441.362726056932	2
0	6358	10445.768274016538	1
0	6360	10445.786322838591	2
0	6363	10454.449963763307	3
0	6366	10457.14088514118	2
0	6368	10460.70559583235	3
0	6371	10466.776861234448	2
0	6373	10476.100352496875	3
0	6376	10477.49691250434	4
0	6379	10488.27899441447	5
0	6382	10488.824451724385	6
0	6385	10490.450474379567	7
0	6388	10492.648849597283	8
0	6390	10493.168705035037	9
0	6392	10499.720651864376	10
0	6394	10504.610700647212	11
0	6396	10509.368266482875	10
0	6399	10516.099577040738	11
0	6401	10516.138744584296	12
0	6403	10516.233886518394	11
0	6406	10522.702883014521	12
0	6408	10526.020348339075	13
0	6410	10529.559903546808	12
0	6413	10551.555030702685	11
0	6416	10552.119418990152	10
0	6419	10556.840412418524	9
0	6422	10558.881193204435	10
0	6424	10560.464504504245	11
0	6426	10560.923782737673	10
0	6429	10561.573501126809	11
0	6431	10567.067276762904	10
0	6434	10570.041973775621	9
0	6437	10577.862394300703	8
0	6440	10579.8961161648	7
0	6443	10582.404188963208	8
0	6445	10589.232921090917	9
0	6447	10593.126803358747	10
0	6449	10594.256605349711	11
0	6451	10595.426843743675	12
0	6453	10598.26004295959	11
0	6456	10604.251565862135	10
0	6459	10614.28858065654	11
0	6461	10614.615062228954	10
0	6464	10614.762759267989	9
0	6467	10616.732649429283	10
0	6469	10620.822574377865	11
0	6471	10642.784694046118	10
0	6474	10643.022093425671	11
0	6476	10644.209339470119	12
0	6478	10647.377006758787	11
0	6481	10647.763208638975	10
0	6484	10649.658210853522	11
0	6486	10651.799727453643	10
0	6489	10657.713479450907	9
0	6492	10662.545543559243	10
0	6494	10667.338058829251	11
0	6496	10667.771521094012	10
0	6499	10668.275252011135	9
0	6502	10669.252051101166	8
0	6505	10676.989244105659	9
0	6507	10681.370434997198	10
0	6509	10683.187544290593	9
0	6512	10689.718722181199	8
0	6515	10689.952865482174	9
0	6517	10694.525847008767	8
0	6520	10697.590894335931	9
0	6522	10701.340482409897	10
0	6524	10706.714620043469	9
0	6527	10708.062220841029	8
0	6530	10710.868110515051	9
0	6532	10711.69324657606	8
0	6535	10716.561953002761	7
0	6538	10723.534773793752	6
0	6540	10725.862495370397	5
0	6542	10727.114388623104	6
0	6545	10732.96003809694	5
0	6547	10738.449429180564	6
0	6550	10744.658500921111	5
0	6552	10748.045042940349	6
0	6555	10749.453778110754	7
0	6558	10755.91761529953	8
0	6560	10770.176803861122	7
0	6563	10774.176179992357	8
0	6565	10777.549323039658	7
0	6568	10781.5722097641	6
0	6570	10782.577404721139	5
0	6572	10790.6308457704	6
0	6575	10801.98595389935	7
0	6578	10803.279483960107	6
0	6580	10807.759528868199	5
0	6582	10831.905396954245	6
0	6585	10838.011929449952	7
0	6588	10843.70197610397	6
0	6590	10845.196617699041	5
0	6592	10848.733480996792	6
0	6595	10851.021445656626	5
0	6597	10853.180964629079	4
0	6599	10854.308009506807	5
0	6602	10858.053413813179	4
0	6604	10859.733546907609	5
0	6607	10860.330470463834	6
0	6610	10861.12553302994	7
0	6613	10864.079084926777	6
0	6615	10864.221329699879	5
0	6617	10875.189362736009	4
0	6619	10882.929094851047	5
0	6622	10883.632403009275	6
0	6625	10884.666528063289	5
0	6627	10888.627643648726	6
0	6630	10888.652328340228	5
0	6632	10891.384157789071	6
0	6635	10895.533779823904	5
0	6637	10903.058123102533	4
0	6639	10910.989236234155	3
0	6641	10932.161012323238	2
0	6643	10932.841735151848	1
0	6645	10934.569552910271	2
0	6648	10952.094786076747	3
0	6651	10952.215260475302	4
0	6654	10956.428240438621	3
0	6656	10965.872222061034	4
0	6659	10972.043278722071	5
0	6662	10972.302201088585	6
0	6665	10977.566345002299	5
0	6667	10978.030368303051	6
0	6670	10983.51421467687	7
0	6673	11001.05911121783	6
0	6675	11001.701348596704	7
0	6678	11002.385550537735	6
0	6680	11002.81952649184	5
0	6682	11004.672658979838	6
0	6685	11008.677541490337	5
0	6687	11009.300030087089	6
0	6690	11010.527174406006	5
0	6692	11011.655618011973	4
0	6694	11018.845908334367	5
0	6697	11020.195127029568	4
0	6699	11024.718308665897	5
0	6702	11038.789281006	6
0	6705	11042.46976744443	5
0	6707	11046.382525914445	4
0	6709	11049.608554160838	5
0	6712	11054.198469463405	4
0	6714	11055.811044143068	5
0	6717	11059.434774669199	4
0	6719	11067.098618099846	5
0	6722	11075.451936309759	4
0	6724	11075.903274623228	3
0	6726	11080.751772031601	2
0	6728	11083.619880525355	3
0	6731	11089.658390930481	4
0	6734	11091.322923735336	3
0	6736	11095.229517166026	4
0	6739	11105.091707421357	5
0	6742	11105.680910483393	6
0	6745	11108.467000868938	7
0	6748	11111.362123398467	6
0	6750	11111.781383042582	7
0	6753	11117.513691583297	8
0	6755	11121.893605766557	7
0	6758	11125.926235236243	8
0	6760	11126.328279654414	9
0	6762	11126.355540981671	8
0	6765	11129.064271753157	7
0	6768	11131.962272625564	6
0	6770	11138.391841360832	7
0	6773	11143.121035001536	6
0	6775	11146.552669759339	5
0	6777	11149.479549623003	6
0	6780	11155.697569589918	5
0	6782	11157.403141890149	6
0	6785	11157.987008568509	5
0	6787	11162.756316535906	6
0	6790	11163.158975982605	7
0	6793	11166.77346774962	8
0	6795	11167.409462504141	9
0	6797	11172.020754164124	10
0	6799	11176.215237695298	11
0	6801	11176.627683964684	12
0	6803	11179.588423306588	13
0	6805	11180.718259021977	14
0	6807	11181.669409762224	13
0	6810	11183.653571474177	12
0	6813	11183.987856120484	13
0	6815	11185.244369405551	14
0	6817	11186.066524251289	13
0	6820	11188.366370216961	12
0	6823	11189.580232754232	11
0	6826	11196.541164853699	12
0	6828	11200.274539821671	13
0	6830	11200.723312065752	12
0	6833	11205.380932783736	11
0	6836	11208.423879565694	12
0	6838	11209.039582133494	11
0	6841	11209.361505363478	10
0	6844	11211.615368940947	9
0	6847	11211.710222691832	8
0	6850	11224.568876989809	9
0	6852	11226.122041475934	10
0	6854	11229.133187370193	9
0	6857	11236.183998676898	8
0	6860	11236.765795507305	7
0	6863	11239.514800237042	6
0	6865	11244.607418449265	7
0	6868	11256.632697546827	8
0	6870	11258.216877288709	7
0	6873	11258.815297080487	6
0	6875	11258.922390836733	5
0	6877	11259.064520042827	4
0	6879	11273.80970293195	5
0	6882	11279.518013573426	4
0	6884	11281.883982402753	5
0	6887	11286.794179424252	4
0	6889	11288.643197572074	3
0	6891	11289.832352690177	4
0	6894	11289.897286606871	3
0	6896	11290.012027518265	2
0	6898	11293.685197037865	3
0	6901	11295.661952239582	4
0	6904	11299.873666015942	5
0	6907	11301.128381892281	4
0	6909	11308.133821951418	5
0	6912	11309.79743911818	4
0	6914	11311.321660941917	5
0	6917	11317.242258699852	4
0	6919	11324.626473557928	3
0	6921	11326.664830647527	4
0	6924	11329.244599683078	5
0	6927	11329.987114465529	6
0	6930	11331.007241429174	5
0	6932	11331.666501534704	6
0	6935	11335.028475391734	5
0	6937	11339.190988623834	6
0	6940	11346.80444047838	7
0	6943	11349.090600606471	8
0	6945	11350.294906728009	7
0	6948	11360.766414731699	6
0	6950	11373.17218656188	5
0	6952	11374.534673407095	6
0	6955	11377.573015166238	7
0	6958	11378.356855092083	8
0	6960	11381.997652695156	9
0	6962	11382.837886792738	10
0	6964	11384.963187218005	9
0	6967	11386.829602805134	8
0	6970	11387.81562649331	9
0	6972	11395.233511432921	8
0	6975	11400.005636772823	7
0	6978	11400.531614255638	6
0	6980	11401.440898404834	7
0	6983	11401.869217829137	6
0	6985	11408.556940510864	5
0	6987	11410.05626784932	4
0	6989	11412.381336068715	5
0	6992	11420.817434207118	6
0	6995	11430.195993833562	5
0	6997	11432.637021673975	4
0	6999	11436.827663056707	5
0	7002	11439.357895808652	6
0	7005	11441.9559337058	5
0	7007	11447.193236826958	4
0	7009	11451.859092171018	5
0	7012	11461.771501340036	4
0	7014	11464.389934553863	5
0	7017	11465.993346800873	4
0	7019	11474.132991370203	3
0	7021	11484.435616246865	2
0	7023	11494.441936055258	3
0	7026	11495.063633203639	2
0	7028	11497.130257169795	3
0	7031	11497.731737784324	2
0	7033	11499.989755613986	3
0	7036	11503.423736146388	4
0	7039	11504.336153102435	3
0	7041	11516.585083529705	4
0	7044	11533.043386204378	3
0	7046	11537.955504596858	4
0	7049	11538.308074479165	3
0	7051	11546.823390594151	2
0	7053	11555.149984856673	3
0	7056	11556.432646774891	2
0	7058	11560.883178099723	3
0	7061	11560.933225132233	4
0	7064	11582.52719676274	5
0	7067	11585.369448007228	6
0	7070	11587.85946685869	5
0	7072	11589.726556171592	6
0	7075	11590.972080316891	7
0	7078	11592.062359451358	6
0	7080	11593.306008768239	7
0	7083	11593.565890598181	6
0	7085	11601.308092724326	5
0	7087	11604.685462614418	6
0	7090	11607.170338095217	7
0	7093	11607.771144066737	8
0	7095	11608.704188233499	9
0	7097	11617.13252683468	10
0	7099	11617.663926234729	9
0	7102	11623.256438478925	8
0	7105	11623.91809922235	7
0	7108	11626.556421072773	6
0	7110	11626.6058377264	5
0	7112	11646.220168472175	6
0	7115	11652.603965064298	7
0	7118	11667.308250708341	8
0	7120	11684.126110504427	7
0	7123	11685.512348641487	6
0	7125	11687.081501114458	7
0	7128	11693.70540610397	8
0	7130	11704.963575499358	7
0	7133	11710.544110843848	6
0	7135	11715.102697856116	5
0	7137	11715.634967108416	4
0	7139	11717.415085984693	5
0	7142	11718.519162465317	4
0	7144	11718.720622326801	3
0	7146	11731.264973506401	2
0	7148	11740.258977164818	3
0	7151	11741.075155027578	4
0	7154	11741.177499320802	5
0	7157	11741.350211564352	4
0	7159	11749.359586398192	3
0	7161	11750.447862393007	2
0	7163	11770.552418807053	3
0	7166	11773.276006026537	4
0	7169	11776.49607360944	3
0	7171	11779.5536574254	4
0	7174	11781.353824205481	5
0	7177	11788.229443027781	4
0	7179	11790.4008661025	5
0	7182	11790.942981801162	6
0	7185	11795.41297569688	5
0	7187	11800.7486949309	6
0	7190	11802.040770413462	5
0	7192	11802.867895065305	6
0	7195	11803.250026988588	7
0	7198	11813.365828163674	6
0	7200	11818.103985258685	7
0	7203	11819.379834678697	6
0	7205	11824.529842508105	5
0	7207	11824.748157947599	4
0	7209	11831.496934281545	3
0	7211	11832.724433104081	2
0	7213	11840.538217727507	1
0	7215	11841.443234573395	2
0	7218	11841.980689381537	1
0	7220	11854.231596705557	2
0	7223	11854.384866929192	3
0	7226	11863.637784553131	4
0	7229	11866.541128869581	5
0	7232	11872.420073857082	6
0	7235	11873.451874280519	5
0	7237	11875.77464592536	6
0	7240	11885.022555124444	5
0	7242	11887.660993982386	4
0	7244	11887.714294743793	3
0	7246	11889.959694632278	4
0	7249	11894.58224873139	3
0	7251	11896.675555472106	2
0	7253	11898.53764647738	1
0	7255	11910.459171506863	2
0	7258	11914.765417750652	3
0	7261	11918.622511894598	4
0	7264	11918.790816186108	3
0	7266	11920.822041948933	4
0	7269	11926.090662353503	3
0	7271	11928.761121108215	2
0	7273	11931.167919661588	3
0	7276	11932.706514250788	2
0	7278	11942.281770100436	3
0	7281	11943.134450903325	2
0	7283	11952.692287615068	1
0	7285	11956.202583619125	2
0	7288	11964.281329021073	1
0	7290	11970.568970619251	2
0	7293	11971.28752738329	3
0	7296	11976.460767710318	2
0	7298	11985.490446001909	3
0	7301	11985.94760015927	4
0	7304	11989.805619400792	5
0	7307	11992.719047240323	4
0	7309	12019.10834435399	5
0	7312	12019.779283941508	6
0	7315	12029.468910896946	5
0	7317	12029.623721764034	6
0	7320	12032.934534847567	5
0	7322	12034.472217852413	6
0	7325	12036.121571456155	5
0	7327	12036.418476554837	4
0	7329	12037.601629957424	3
0	7331	12038.890737907138	4
0	7334	12039.375933773666	5
0	7337	12049.438744029815	6
0	7340	12050.382171881333	5
0	7342	12052.983048056148	4
0	7344	12061.107758584188	5
0	7347	12061.410270083395	4
0	7349	12062.695478477509	5
0	7352	12063.784444468849	4
0	7354	12076.835584068346	5
0	7357	12079.641264330876	4
0	7359	12080.527246513672	5
0	7362	12081.335207646753	6
0	7365	12081.744533525531	5
0	7367	12082.166848138203	4
0	7369	12097.817015713861	3
0	7371	12101.911147951318	2
0	7373	12108.178274698912	3
0	7376	12111.477294330982	2
0	7378	12125.050918651271	1
0	7380	12129.446873044601	0
0	7382	12140.193400961175	1
0	7385	12142.011369858491	2
0	7388	12144.385612506971	3
0	7391	12145.670434231775	4
0	7394	12146.544405689905	3
0	7396	12149.643723408386	2
0	7398	12161.23816110056	3
0	7401	12163.811201440677	4
0	7404	12165.248695016348	5
0	7407	12167.915135811706	4
0	7409	12168.49078593381	5
0	7412	12168.878031247818	6
0	7415	12174.352811753931	7
0	7418	12174.80090631048	6
0	7420	12176.266691761069	5
0	7422	12201.670400305798	6
0	7425	12204.293773651191	7
0	7428	12206.946031142416	6
0	7430	12211.707310242472	5
0	7432	12223.389091664371	4
0	7434	12224.301517423948	5
0	7437	12227.796412424355	6
0	7440	12227.835909268803	7
0	7443	12233.857253236937	6
0	7445	12235.447478313324	7
0	7448	12241.684448192158	6
0	7450	12242.412105678294	5
0	7452	12250.277331937654	6
0	7455	12260.781579328114	7
0	7458	12267.789401582378	8
0	7460	12268.572090740364	7
0	7463	12285.019265062614	6
0	7465	12287.090394245468	7
0	7468	12295.567296214603	6
0	7470	12299.777259525592	5
0	7472	12300.958433387313	4
0	7474	12311.39109520659	5
0	7477	12318.238923634033	4
0	7479	12320.919625956874	5
0	7482	12321.976388426024	4
0	7484	12323.938352777493	5
0	7487	12326.068545326063	4
0	7489	12334.7368638812	5
0	7492	12335.022268258649	6
0	7495	12335.106193376075	5
0	7497	12340.711010130384	4
0	7499	12343.905446275397	3
0	7501	12344.867402333968	4
0	7504	12355.041408728873	5
0	7507	12375.754053909214	4
0	7509	12382.498389277527	3
0	7511	12384.06426462138	2
0	7513	12384.682983188809	3
0	7516	12389.611508115748	2
0	7518	12399.498446915032	3
0	7521	12401.405460779139	4
0	7524	12403.58224515555	3
0	7526	12406.081685852396	4
0	7529	12411.743290728845	3
0	7531	12413.420433048259	2
0	7533	12417.385318785921	3
0	7536	12419.268542774871	2
0	7538	12422.517926505239	3
0	7541	12422.838626486561	4
0	7544	12438.289959812616	3
0	7546	12438.852848243891	4
0	7549	12440.310623152601	5
0	7552	12444.110836301511	4
0	7554	12452.579202519188	5
0	7557	12453.177830280613	6
0	7560	12457.772339577757	5
0	7562	12457.797308423398	6
0	7565	12468.513139023432	7
0	7568	12468.864823965627	6
0	7570	12471.200205274164	5
0	7572	12476.205126505893	4
0	7574	12484.575636900905	3
0	7576	12494.557698395375	4
0	7579	12502.931090764638	5
0	7582	12507.52112623013	6
0	7585	12509.143179377902	7
0	7588	12510.198702970046	8
0	7590	12514.04455685897	7
0	7593	12516.61989103565	6
0	7595	12519.906144734987	5
0	7597	12533.764873871207	4
0	7599	12534.959430322861	5
0	7602	12535.607379119966	4
0	7604	12539.062473496801	3
0	7606	12541.467281401825	4
0	7609	12551.097841672499	3
0	7611	12551.588732850107	2
0	7613	12554.449017272531	1
0	7615	12566.569306920943	2
0	7618	12578.076873108472	3
0	7621	12587.629732885264	2
0	7623	12589.591372279767	3
0	7626	12592.883705869129	2
0	7628	12594.323158711242	3
0	7631	12597.092984270686	4
0	7634	12605.985398126161	5
0	7637	12607.901201529589	6
0	7640	12609.783207509833	5
0	7642	12614.569177938697	4
0	7644	12615.779486144824	3
0	7646	12616.012160430737	2
0	7648	12617.551086839743	3
0	7651	12617.89000254883	2
0	7653	12625.11487915927	3
0	7656	12625.638917864671	4
0	7659	12626.440218616587	3
0	7661	12632.127401175606	4
0	7664	12632.293505891902	5
0	7667	12632.921360496748	4
0	7669	12634.278851041169	3
0	7671	12641.7806466799	2
0	7673	12646.525526028999	3
0	7676	12648.730877466645	2
0	7678	12665.914740236795	1
0	7680	12670.87547273156	0
0	7682	12671.699988505494	1
0	7685	12675.720435202328	2
0	7688	12677.413365133395	3
0	7691	12683.032419918069	4
0	7694	12683.801655072147	5
0	7697	12685.23662785477	4
0	7699	12685.62972344768	5
0	7702	12685.674292678254	6
0	7705	12686.032826544451	5
0	7707	12688.057096222988	6
0	7710	12688.62102851119	5
0	7712	12689.2818465908	6
0	7715	12691.525737402699	7
0	7718	12691.933446842144	6
0	7720	12692.095087163855	5
0	7722	12694.479995479501	4
0	7724	12695.365669436635	5
0	7727	12698.461463538223	6
0	7730	12701.500974410487	5
0	7732	12701.565429746951	6
0	7735	12710.043505617156	7
0	7738	12710.140557261369	8
0	7740	12712.271364143754	7
0	7743	12713.132764585209	6
0	7745	12713.527389293145	7
0	7748	12731.271609784937	6
0	7750	12733.004649451162	7
0	7753	12736.736935814727	8
0	7755	12739.949269786902	7
0	7758	12745.595567555557	6
0	7760	12749.039550133288	7
0	7763	12754.023475878601	8
0	7765	12755.214791079657	9
0	7767	12756.201187387695	8
0	7770	12757.566827519623	9
0	7772	12767.402464190086	8
0	7775	12768.496892965632	7
0	7778	12769.212550557366	6
0	7780	12771.859829183826	7
0	7783	12774.062815674402	8
0	7785	12779.021335598314	9
0	7787	12781.973132596483	10
0	7789	12786.11863842924	9
0	7792	12791.390550967126	8
0	7795	12795.561632894712	9
0	7797	12796.038319453434	10
0	7799	12796.435106538703	9
0	7802	12804.383664557015	10
0	7804	12804.540613201627	9
0	7807	12804.594996448673	8
0	7810	12804.848031451399	9
0	7812	12812.260473133863	10
0	7814	12819.320060404344	11
0	7816	12819.616351389436	10
0	7819	12819.910900572422	11
0	7821	12822.68854113612	10
0	7824	12824.84299191409	9
0	7827	12826.351805766172	10
0	7829	12830.809246946129	11
0	7831	12833.691498059958	10
0	7834	12836.038287870321	9
0	7837	12836.369455774216	10
0	7839	12836.538827177672	11
0	7841	12839.539042799545	12
0	7843	12842.744485444874	11
0	7846	12843.453526563286	10
0	7849	12844.33887120268	9
0	7852	12849.721694734926	8
0	7855	12853.639726542343	7
0	7858	12857.627473056617	8
0	7860	12861.785096553966	9
0	7862	12862.084429573018	8
0	7865	12863.370908063774	9
0	7867	12863.703336321274	10
0	7869	12865.995069477199	9
0	7872	12866.048740437385	8
0	7875	12872.300191843771	9
0	7877	12873.347253563557	10
0	7879	12876.136348999833	11
0	7881	12879.653619945042	12
0	7883	12882.472552780167	11
0	7886	12884.670553614518	12
0	7888	12885.330725055719	11
0	7891	12886.585250944002	10
0	7894	12894.849078692313	9
0	7897	12899.83992010651	10
0	7899	12900.135861257627	11
0	7901	12902.605573418317	12
0	7903	12902.639308937357	11
0	7906	12904.090496480705	10
0	7909	12907.570988561416	11
0	7911	12908.268726577716	10
0	7914	12911.002829702933	11
0	7916	12913.159806448808	10
0	7919	12914.491816309372	9
0	7922	12923.741845538478	10
0	7924	12924.058889652561	11
0	7926	12926.625744077023	12
0	7928	12927.781694341496	13
0	7930	12932.872750644305	14
0	7932	12933.725556355768	13
0	7935	12935.981150020141	14
0	7937	12943.134949361229	15
0	7939	12946.910882038646	14
0	7942	12948.852166489844	13
0	7945	12950.120197273868	12
0	7948	12951.253421192037	11
0	7951	12952.772393854872	12
0	7953	12960.827775945049	13
0	7955	12967.497536998597	14
0	7957	12968.055756243467	13
0	7960	12968.750889629514	12
0	7963	12972.391005772241	11
0	7966	12973.477394774551	10
0	7969	12977.204583876667	9
0	7972	12979.771836644793	10
0	7974	12986.310494121175	9
0	7977	12986.654851352087	10
0	7979	12988.109724591004	11
0	7981	12988.134442743784	12
0	7983	13002.300608642362	11
0	7986	13010.697880706166	10
0	7989	13010.990319415696	11
0	7991	13014.73271142237	10
0	7994	13023.790120003434	11
0	7996	13024.531534643919	12
0	7998	13028.129208829744	13
[...]
1	7108	11626.556421072773	0
1	7110	11626.6058377264	0
1	7112	11646.220168472175	0
1	7115	11652.603965064298	0
1	7118	11667.308250708341	1
1	7120	11684.126110504427	0
1	7123	11685.512348641487	0
1	7125	11687.081501114458	0
1	7128	11693.70540610397	1
1	7130	11704.963575499358	0
1	7133	11710.544110843848	0
1	7135	11715.102697856116	0
1	7137	11715.634967108416	0
1	7139	11717.415085984693	0
1	7142	11718.519162465317	0
1	7144	11718.720622326801	0
1	7146	11731.264973506401	0
1	7148	11740.258977164818	0
1	7151	11741.075155027578	0
1	7154	11741.177499320802	0
1	7157	11741.350211564352	0
1	7159	11749.359586398192	0
1	7161	11750.447862393007	0
1	7163	11770.552418807053	0
1	7166	11773.276006026537	0
1	7169	11776.49607360944	0
1	7171	11779.5536574254	0
1	7174	11781.353824205481	0
1	7177	11788.229443027781	0
1	7179	11790.4008661025	0
1	7182	11790.942981801162	0
1	7185	11795.41297569688	0
1	7187	11800.7486949309	0
1	7190	11802.040770413462	0
1	7192	11802.867895065305	0
1	7195	11803.250026988588	0
1	7198	11813.365828163674	0
1	7200	11818.103985258685	0
1	7203	11819.379834678697	0
1	7205	11824.529842508105	0
1	7207	11824.748157947599	0
1	7209	11831.496934281545	0
1	7211	11832.724433104081	0
1	7213	11840.538217727507	0
1	7215	11841.443234573395	0
1	7218	11841.980689381537	0
1	7220	11854.231596705557	0
1	7223	11854.384866929192	0
1	7226	11863.637784553131	0
1	7229	11866.541128869581	0
1	7232	11872.420073857082	0
1	7235	11873.451874280519	0
1	7237	11875.77464592536	0
1	7240	11885.022555124444	0
1	7242	11887.660993982386	0
1	7244	11887.714294743793	0
1	7246	11889.959694632278	0
1	7249	11894.58224873139	0
1	7251	11896.675555472106	0
1	7253	11898.53764647738	0
1	7255	11910.459171506863	0
1	7258	11914.765417750652	0
1	7261	11918.622511894598	0
1	7264	11918.790816186108	0
1	7266	11920.822041948933	0
1	7269	11926.090662353503	0
1	7271	11928.761121108215	0
1	7273	11931.167919661588	0
1	7276	11932.706514250788	0
1	7278	11942.281770100436	0
1	7281	11943.134450903325	0
1	7283	11952.692287615068	0
1	7285	11956.202583619125	0
1	7288	11964.281329021073	0
1	7290	11970.568970619251	0
1	7293	11971.28752738329	0
1	7296	11976.460767710318	0
1	7298	11985.490446001909	0
1	7301	11985.94760015927	0
1	7304	11989.805619400792	0
1	7307	11992.719047240323	0
1	7309	12019.10834435399	0
1	7312	12019.779283941508	0
1	7315	12029.468910896946	0
1	7317	12029.623721764034	0
1	7320	12032.934534847567	0
1	7322	12034.472217852413	0
1	7325	12036.121571456155	0
1	7327	12036.418476554837	0
1	7329	12037.601629957424	0
1	7331	12038.890737907138	0
1	7334	12039.375933773666	0
1	7337	12049.438744029815	0
1	7340	12050.382171881333	0
1	7342	12052.983048056148	0
1	7344	12061.107758584188	0
1	7347	12061.410270083395	0
1	7349	12062.695478477509	0
1	7352	12063.784444468849	0
1	7354	12076.835584068346	0
1	7357	12079.641264330876	0
1	7359	12080.527246513672	0
1	7362	12081.335207646753	0
1	7365	12081.744533525531	0
1	7367	12082.166848138203	0
1	7369	12097.817015713861	0
1	7371	12101.911147951318	0
1	7373	12108.178274698912	0
1	7376	12111.477294330982	0
1	7378	12125.050918651271	0
1	7380	12129.446873044601	0
1	7382	12140.193400961175	0
1	7385	12142.011369858491	0
1	7388	12144.385612506971	0
1	7391	12145.670434231775	0
1	7394	12146.544405689905	0
1	7396	12149.643723408386	0
1	7398	12161.23816110056	0
1	7401	12163.811201440677	0
1	7404	12165.248695016348	0
1	7407	12167.915135811706	0
1	7409	12168.49078593381	0
1	7412	12168.878031247818	0
1	7415	12174.352811753931	0
1	7418	12174.80090631048	0
1	7420	12176.266691761069	0
1	7422	12201.670400305798	0
1	7425	12204.293773651191	0
1	7428	12206.946031142416	0
1	7430	12211.707310242472	0
1	7432	12223.389091664371	0
1	7434	12224.301517423948	0
1	7437	12227.796412424355	0
1	7440	12227.835909268803	0
1	7443	12233.857253236937	0
1	7445	12235.447478313324	0
1	7448	12241.684448192158	0
1	7450	12242.412105678294	0
1	7452	12250.277331937654	0
1	7455	12260.781579328114	0
1	7458	12267.789401582378	1
1	7460	12268.572090740364	0
1	7463	12285.019265062614	0
1	7465	12287.090394245468	0
1	7468	12295.567296214603	0
1	7470	12299.777259525592	0
1	7472	12300.958433387313	0
1	7474	12311.39109520659	0
1	7477	12318.238923634033	0
1	7479	12320.919625956874	0
1	7482	12321.976388426024	0
1	7484	12323.938352777493	0
1	7487	12326.068545326063	0
1	7489	12334.7368638812	0
1	7492	12335.022268258649	0
1	7495	12335.106193376075	0
1	7497	12340.711010130384	0
1	7499	12343.905446275397	0
1	7501	12344.867402333968	0
1	7504	12355.041408728873	0
1	7507	12375.754053909214	0
1	7509	12382.498389277527	0
1	7511	12384.06426462138	0
1	7513	12384.682983188809	0
1	7516	12389.611508115748	0
1	7518	12399.498446915032	0
1	7521	12401.405460779139	0
1	7524	12403.58224515555	0
1	7526	12406.081685852396	0
1	7529	12411.743290728845	0
1	7531	12413.420433048259	0
1	7533	12417.385318785921	0
1	7536	12419.268542774871	0
1	7538	12422.517926505239	0
1	7541	12422.838626486561	0
1	7544	12438.289959812616	0
1	7546	12438.852848243891	0
1	7549	12440.310623152601	0
1	7552	12444.110836301511	0
1	7554	12452.579202519188	0
1	7557	12453.177830280613	0
1	7560	12457.772339577757	0
1	7562	12457.797308423398	0
1	7565	12468.513139023432	0
1	7568	12468.864823965627	0
1	7570	12471.200205274164	0
1	7572	12476.205126505893	0
1	7574	12484.575636900905	0
1	7576	12494.557698395375	0
1	7579	12502.931090764638	0
1	7582	12507.52112623013	0
1	7585	12509.143179377902	0
1	7588	12510.198702970046	1
1	7590	12514.04455685897	0
1	7593	12516.61989103565	0
1	7595	12519.906144734987	0
1	7597	12533.764873871207	0
1	7599	12534.959430322861	0
1	7602	12535.607379119966	0
1	7604	12539.062473496801	0
1	7606	12541.467281401825	0
1	7609	12551.097841672499	0
1	7611	12551.588732850107	0
1	7613	12554.449017272531	0
1	7615	12566.569306920943	0
1	7618	12578.076873108472	0
1	7621	12587.629732885264	0
1	7623	12589.591372279767	0
1	7626	12592.883705869129	0
1	7628	12594.323158711242	0
1	7631	12597.092984270686	0
1	7634	12605.985398126161	0
1	7637	12607.901201529589	0
1	7640	12609.783207509833	0
1	7642	12614.569177938697	0
1	7644	12615.779486144824	0
1	7646	12616.012160430737	0
1	7648	12617.551086839743	0
1	7651	12617.89000254883	0
1	7653	12625.11487915927	0
1	7656	12625.638917864671	0
1	7659	12626.440218616587	0
1	7661	12632.127401175606	0
1	7664	12632.293505891902	0
1	7667	12632.921360496748	0
1	7669	12634.278851041169	0
1	7671	12641.7806466799	0
1	7673	12646.525526028999	0
1	7676	12648.730877466645	0
1	7678	12665.914740236795	0
1	7680	12670.87547273156	0
1	7682	12671.699988505494	0
1	7685	12675.720435202328	0
1	7688	12677.413365133395	0
1	7691	12683.032419918069	0
1	7694	12683.801655072147	0
1	7697	12685.23662785477	0
1	7699	12685.62972344768	0
1	7702	12685.674292678254	0
1	7705	12686.032826544451	0
1	7707	12688.057096222988	0
1	7710	12688.62102851119	0
1	7712	12689.2818465908	0
1	7715	12691.525737402699	0
1	7718	12691.933446842144	0
1	7720	12692.095087163855	0
1	7722	12694.479995479501	0
1	7724	12695.365669436635	0
1	7727	12698.461463538223	0
1	7730	12701.500974410487	0
1	7732	12701.565429746951	0
1	7735	12710.043505617156	0
1	7738	12710.140557261369	1
1	7740	12712.271364143754	0
1	7743	12713.132764585209	0
1	7745	12713.527389293145	0
1	7748	12731.271609784937	0
1	7750	12733.004649451162	0
1	7753	12736.736935814727	1
1	7755	12739.949269786902	0
1	7758	12745.595567555557	0
1	7760	12749.039550133288	0
1	7763	12754.023475878601	1
1	7765	12755.214791079657	2
1	7767	12756.201187387695	1
1	7770	12757.566827519623	2
1	7772	12767.402464190086	1
1	7775	12768.496892965632	0
1	7778	12769.212550557366	0
1	7780	12771.859829183826	0
1	7783	12774.062815674402	1
1	7785	12779.021335598314	2
1	7787	12781.973132596483	3
1	7789	12786.11863842924	2
1	7792	12791.390550967126	1
1	7795	12795.561632894712	2
1	7797	12796.038319453434	3
1	7799	12796.435106538703	2
1	7802	12804.383664557015	3
1	7804	12804.540613201627	2
1	7807	12804.594996448673	1
1	7810	12804.848031451399	2
1	7812	12812.260473133863	3
1	7814	12819.320060404344	4
1	7816	12819.616351389436	3
1	7819	12819.910900572422	4
1	7821	12822.68854113612	3
1	7824	12824.84299191409	2
1	7827	12826.351805766172	3
1	7829	12830.809246946129	4
1	7831	12833.691498059958	3
1	7834	12836.038287870321	2
1	7837	12836.369455774216	3
1	7839	12836.538827177672	4
1	7841	12839.539042799545	5
1	7843	12842.744485444874	4
1	7846	12843.453526563286	3
1	7849	12844.33887120268	2
1	7852	12849.721694734926	1
1	7855	12853.639726542343	0
1	7858	12857.627473056617	1
1	7860	12861.785096553966	2
1	7862	12862.084429573018	1
1	7865	12863.370908063774	2
1	7867	12863.703336321274	3
1	7869	12865.995069477199	2
1	7872	12866.048740437385	1
1	7875	12872.300191843771	2
1	7877	12873.347253563557	3
1	7879	12876.136348999833	4
1	7881	12879.653619945042	5
1	7883	12882.472552780167	4
1	7886	12884.670553614518	5
1	7888	12885.330725055719	4
1	7891	12886.585250944002	3
1	7894	12894.849078692313	2
1	7897	12899.83992010651	3
1	7899	12900.135861257627	4
1	7901	12902.605573418317	5
1	7903	12902.639308937357	4
1	7906	12904.090496480705	3
1	7909	12907.570988561416	4
1	7911	12908.268726577716	3
1	7914	12911.002829702933	4
1	7916	12913.159806448808	3
1	7919	12914.491816309372	2
1	7922	12923.741845538478	3
1	7924	12924.058889652561	4
1	7926	12926.625744077023	5
1	7928	12927.781694341496	6
1	7930	12932.872750644305	7
1	7932	12933.725556355768	6
1	7935	12935.981150020141	7
1	7937	12943.134949361229	8
1	7939	12946.910882038646	7
1	7942	12948.852166489844	6
1	7945	12950.120197273868	5
1	7948	12951.253421192037	4
1	7951	12952.772393854872	5
1	7953	12960.827775945049	6
1	7955	12967.497536998597	7
1	7957	12968.055756243467	6
1	7960	12968.750889629514	5
1	7963	12972.391005772241	4
1	7966	12973.477394774551	3
1	7969	12977.204583876667	2
1	7972	12979.771836644793	3
1	7974	12986.310494121175	2
1	7977	12986.654851352087	3
1	7979	12988.109724591004	4
1	7981	12988.134442743784	5
1	7983	13002.300608642362	4
1	7986	13010.697880706166	3
1	7989	13010.990319415696	4
1	7991	13014.73271142237	3
1	7994	13023.790120003434	4
1	7996	13024.531534643919	5
1	7998	13028.129208829744	6
1	8000	13029.06811848684	5
1	8003	13031.18025211618	4
1	8006	13031.44454596256	3
1	8009	13044.611283845989	2
1	8012	13050.772170398703	1
1	8015	13051.200956872349	0
1	8018	13061.300757372754	0
1	8020	13062.129681652614	0
1	8022	13064.213174205111	0
1	8025	13072.786460559386	0
1	8027	13074.338358714765	0
1	8029	13079.12163764157	0
1	8032	13080.0127146232	0
1	8035	13081.92562420332	0
1	8038	13083.783072665267	0
1	8040	13084.167826648446	0
1	8043	13084.856230146413	0
1	8045	13087.155262621592	0
1	8047	13091.624167717769	0
1	8049	13097.141549006213	0
1	8051	13101.39899716778	0
1	8053	13106.028596742581	0
1	8055	13107.873733568415	0
1	8058	13111.058480289701	0
1	8060	13125.421103382741	0
1	8063	13130.713154938256	0
1	8066	13133.181144151194	0
1	8069	13135.550343049817	0
1	8071	13137.13122278702	0
1	8073	13139.337341954693	0
1	8076	13142.008723720077	0
1	8079	13144.686010815706	0
1	8081	13168.163273487412	0
1	8083	13169.529185734863	0
1	8085	13178.37052997535	0
1	8088	13190.908814119431	0
1	8090	13206.068519484427	0
1	8093	13207.995290912396	0
1	8096	13208.720961288746	0
1	8098	13209.27237631221	0
1	8101	13210.428039463058	0
1	8104	13211.19262788964	0
1	8107	13213.504521074892	0
1	8109	13216.728696959881	0
1	8112	13225.405622041843	0
1	8114	13225.704705131647	0
1	8116	13229.056392821327	0
1	8118	13238.358633970135	0
1	8121	13251.289781804072	0
1	8123	13253.3620958508	0
1	8126	13253.714888332339	0
1	8128	13261.835630711812	0
1	8131	13276.103505651189	0
1	8134	13280.457060231984	0
1	8137	13284.485900422702	0
1	8140	13290.815760374143	0
1	8142	13297.238139994314	0
1	8144	13298.746101116441	0
1	8147	13301.137905160311	0
1	8149	13301.858864032666	0
1	8151	13304.974964992096	0
1	8153	13313.021903312675	0
1	8155	13317.709039985381	0
1	8158	13321.731142860382	0
1	8160	13331.60613408127	0
1	8163	13334.595042250295	0
1	8166	13335.704833438268	0
1	8169	13346.70604598854	0
1	8171	13353.26264700905	0
1	8173	13353.551925715329	0
1	8176	13356.534699725225	0
1	8178	13363.341561025831	0
1	8181	13364.242790846301	0
1	8184	13366.526545854837	0
1	8186	13369.41076544305	0
1	8189	13377.58281425988	0
1	8192	13379.296673673732	0
1	8195	13387.317797134293	0
1	8197	13387.703645282573	0
1	8199	13389.634072422571	0
1	8202	13395.751014072969	0
1	8204	13399.745044673637	0
1	8207	13411.135293007957	0
1	8209	13416.115139387217	0
1	8211	13425.340669161526	0
1	8213	13432.802003932501	0
1	8215	13436.953326130898	0
1	8218	13437.558971059274	0
1	8220	13439.092319332057	0
1	8222	13439.999449343442	0
1	8225	13450.830963436349	0
1	8228	13452.564991112297	0
1	8230	13456.097703032632	0
1	8233	13459.072005647001	0
1	8235	13465.090110868835	0
1	8237	13468.839475825794	0
1	8240	13469.973019404832	0
1	8243	13473.170938403349	0
1	8245	13476.190608219915	0
1	8248	13481.867194149209	0
1	8250	13486.574818860675	0
1	8253	13486.845758821521	0
1	8256	13487.44352004438	0
1	8258	13488.335423725227	0
1	8261	13497.425981832417	0
1	8264	13498.696482175584	0
1	8267	13502.784792899064	0
1	8270	13504.278597299658	0
1	8272	13504.478918533558	0
1	8275	13509.457548579317	0
1	8277	13510.395717983518	0
1	8280	13512.207599934923	0
1	8282	13514.40809059304	0
1	8285	13521.345304129766	0
1	8287	13522.441824054111	0
1	8290	13529.712988195806	0
1	8292	13530.493775426918	0
1	8294	13537.911189797276	0
1	8297	13544.848122089147	0
1	8300	13548.50590660006	0
1	8303	13558.515846490488	1
1	8305	13562.227832481918	0
1	8308	13567.351794407711	1
1	8310	13568.231911129751	2
1	8312	13572.881478511774	3
1	8314	13579.102893000043	2
1	8317	13579.199734050993	3
1	8319	13580.292297546509	2
1	8322	13588.478266260021	1
1	8325	13594.822559295067	0
1	8328	13597.806916425222	0
1	8330	13623.892511423142	0
1	8332	13625.09750460014	0
1	8334	13631.461568310389	0
1	8337	13633.256756332463	0
1	8340	13634.386811812482	0
1	8343	13636.332997050271	0
1	8345	13643.354916717003	0
1	8348	13645.743062423651	1
1	8350	13649.080798276023	0
1	8353	13651.127155036411	0
1	8355	13651.715448372517	0
1	8357	13656.724365303341	0
1	8359	13659.930596875435	0
1	8361	13663.005376902833	0
1	8363	13670.889070282504	0
1	8366	13679.592779202719	0
1	8369	13684.82324584838	0
1	8372	13686.675874947591	0
1	8374	13686.965170065793	0
1	8377	13688.849880740569	0
1	8380	13691.09882066759	0
1	8382	13693.886541685162	0
1	8385	13694.466246674863	0
1	8387	13695.265215559906	0
1	8389	13697.043029521569	0
1	8392	13697.776575973845	0
1	8395	13704.823456810509	0
1	8397	13708.930365458264	0
1	8400	13715.446981356739	0
1	8402	13717.889278122182	0
1	8405	13719.310172490565	0
1	8408	13720.419562549464	1
1	8410	13720.570674088173	0
1	8413	13721.346106299975	0
1	8415	13740.414794128368	0
1	8418	13743.724544249223	0
1	8420	13743.77303132001	0
1	8422	13744.263986330972	0
1	8424	13745.032162022246	0
1	8426	13746.051899961434	0
1	8428	13752.699425623463	0
1	8430	13753.342981668913	0
1	8433	13755.812802358334	0
1	8435	13757.73895398961	0
1	8438	13758.560071985797	0
1	8441	13763.010838219076	0
1	8444	13766.817941914791	0
1	8447	13771.853523090386	0
1	8449	13775.880063867809	0
1	8452	13783.124772843944	0
1	8455	13790.515585837431	0
1	8457	13790.631698467111	0
1	8460	13792.093960720102	0
1	8463	13800.956957041571	0
1	8465	13807.772312527284	0
1	8468	13810.271245596369	1
1	8470	13810.944977027937	0
1	8473	13811.66809974914	1
1	8475	13812.927129109129	2
1	8477	13814.898542740545	3
1	8479	13815.290042940233	4
1	8481	13819.169758393477	3
1	8484	13820.520527832239	2
1	8487	13820.802951489202	3
1	8489	13826.477898143189	2
1	8492	13827.246953672315	1
1	8495	13827.761704094869	0
1	8498	13828.257230453751	1
1	8500	13828.97100966137	0
1	8503	13829.330833934125	1
1	8505	13829.598985304802	0
1	8508	13832.090759320149	0
1	8510	13832.75664018253	0
1	8512	13833.735337818458	0
1	8514	13836.716405315406	0
1	8517	13841.30799310881	0
1	8520	13851.864773405184	0
1	8522	13853.398272229586	0
1	8524	13853.450525449194	0
1	8527	13857.496985387903	0
1	8529	13858.289025572111	0
1	8532	13858.578483106698	0
1	8535	13859.303634029024	0
1	8537	13864.187591325668	0
1	8540	13866.248133440696	0
1	8543	13867.070550086529	1
1	8545	13868.556498913549	0
1	8548	13875.937246637381	0
1	8550	13876.023427404426	0
1	8553	13877.372781467432	1
1	8555	13883.205859497836	0
1	8558	13886.795767453378	1
1	8560	13888.971960319634	0
1	8563	13889.59994654196	1
1	8565	13890.588031605606	0
1	8568	13895.982420886841	1
1	8570	13899.644610415547	0
1	8573	13900.548820832494	0
1	8575	13902.992498819305	0
1	8577	13905.233670156445	0
1	8579	13908.971821372813	0
1	8581	13911.763294813713	0
1	8584	13920.700831412746	0
1	8586	13943.42884906808	0
1	8589	13946.38876500506	0
1	8592	13953.88816107768	0
1	8595	13958.416525338578	0
1	8597	13959.873871929217	0
1	8600	13961.607415448209	0
1	8603	13962.597878760642	0
1	8605	13962.675838378022	0
1	8608	13964.433486970858	1
1	8610	13965.849683328942	2
1	8612	13971.765108615895	3
1	8614	13972.549540846081	2
1	8617	13972.710092951802	1
1	8620	13975.916197900057	0
1	8623	13977.364534048101	1
1	8625	13979.139876019671	0
1	8628	13980.913374519692	0
1	8630	13984.322621348508	0
1	8633	13986.850829215445	1
1	8635	13988.002116944512	0
1	8638	13990.246251079394	1
1	8640	13996.559964886462	0
1	8643	13998.256348763519	0
1	8645	13998.272696817253	0
1	8647	14003.722179881067	0
1	8650	14004.656860274143	0
1	8652	14009.144082958836	0
1	8654	14010.482573991514	0
1	8657	14015.152059185285	0
1	8659	14015.382353880636	0
1	8662	14019.474357496909	0
1	8664	14019.559770797902	0
1	8667	14025.067588245543	0
1	8669	14027.753875028873	0
1	8672	14028.178639896913	0
1	8675	14036.777674774508	0
1	8678	14040.101254605709	1
1	8680	14042.958488704651	0
1	8683	14042.984963254217	0
1	8685	14045.502053581189	0
1	8688	14050.496465261584	1
1	8690	14053.226411522505	0
1	8693	14055.272380022455	1
1	8695	14060.120772554483	0
1	8698	14066.77907227649	1
1	8700	14080.155424803676	0
1	8703	14083.899232270499	1
1	8705	14085.823599041993	0
1	8708	14088.717444828744	0
1	8710	14090.830746933251	0
1	8712	14091.984266379423	0
1	8715	14093.482575703957	0
1	8717	14098.220318702678	0
1	8720	14102.351112928403	0
1	8723	14106.745753742406	1
1	8725	14107.386396239526	2
1	8727	14109.870301441407	1
1	8730	14110.326149996037	0
1	8733	14112.602648130488	0
1	8735	14114.882523489291	0
1	8737	14114.99510459794	0
1	8740	14121.436381855089	0
1	8742	14138.625970044089	0
1	8744	14155.464504873631	0
1	8746	14157.39522049559	0
1	8749	14159.301424221059	0
1	8752	14162.097592790557	0
1	8754	14163.354095099131	0
1	8756	14168.744916990641	0
1	8758	14173.643764156773	0
1	8761	14215.692390617038	0
1	8764	14221.845752999416	0
1	8766	14224.703496084662	0
1	8769	14226.647815656482	0
1	8771	14227.983794243979	0
1	8773	14229.680752101188	0
1	8776	14230.367534240589	0
1	8779	14230.953417435884	0
1	8782	14235.198733493105	0
1	8785	14238.03194148216	0
1	8787	14238.246475369341	0
1	8790	14243.807319672257	0
1	8793	14247.832583543103	1
1	8795	14251.914466660216	0
1	8798	14252.761017038959	1
1	8800	14253.058315578089	2
1	8802	14257.112930000557	1
1	8805	14258.901236646101	0
1	8808	14260.205718268057	1
1	8810	14263.358415284187	2
1	8812	14266.662660108877	1
1	8815	14270.121501344564	2
1	8817	14271.607918057102	3
1	8819	14280.19930568679	4
1	8821	14283.096393654569	5
1	8823	14285.441036408862	4
1	8826	14287.944142547162	3
1	8829	14292.386463513846	2
1	8832	14293.376096893322	1
1	8835	14294.113084030967	2
1	8837	14297.646130557229	1
1	8840	14301.813877400104	2
1	8842	14301.83744277142	3
1	8844	14311.025128852188	4
1	8846	14314.512513675891	3
1	8849	14321.682386683293	4
1	8851	14321.71695658155	3
1	8854	14323.416873313833	2
1	8857	14330.939438824943	1
1	8860	14333.710926770621	2
1	8862	14336.66750064039	3
1	8864	14337.54556313618	2
1	8867	14340.635880402383	1
1	8870	14341.451781092314	0
1	8873	14341.465734619288	0
1	8875	14341.840979263537	0
1	8877	14342.456513092	0
1	8880	14346.223475510046	0
1	8882	14347.768405417268	0
1	8884	14366.955127997145	0
1	8887	14373.442463066937	0
1	8890	14374.995557913782	0
1	8893	14387.239522722262	0
1	8895	14394.088276938296	0
1	8898	14398.709175580079	1

